file-created-by  Deltares, D-Flow FM Version 1.1.135.39106, Mar 12 2015, 10:27:07
file-creation-date  10:37:11, 12-03-2015                                        
task      full-coupling
geometry  unstructured
horizontal-aggregation no
reference-time           '19991216000000'
hydrodynamic-start-time  '19991216000000'
hydrodynamic-stop-time   '19991216010000'
hydrodynamic-timestep    '00000000001000'
conversion-ref-time      '19991216000000'
conversion-start-time    '19991216000000'
conversion-stop-time     '19991216010000'
conversion-timestep      '00000000001000'
grid-cells-first-direction       63814
grid-cells-second-direction          1
number-hydrodynamic-layers           7
number-horizontal-exchanges     788900
number-vertical-exchanges     382884
number-water-quality-segments-per-layer      63814
number-water-quality-layers          7
hydrodynamic-file        'uni3d'
aggregation-file         none
boundaries-file        'uni3d.bnd'
waqgeom-file    'uni3d_flowgeom.nc'
volumes-file             'uni3d.vol'
areas-file               'uni3d.are'
flows-file               'uni3d.flo'
pointers-file            'uni3d.poi'
lengths-file             'uni3d.len'
salinity-file            'uni3d.sal'
temperature-file         none
vert-diffusion-file      'uni3d.vdf'
horizontal-surfaces-file 'uni3d.srf'
surfaces-file            'uni3d.srfold'
shear-stresses-file      'uni3d.tau'
attributes-file        'uni3d.atr'
hydrodynamic-layers
       0.142857
       0.142857
       0.142857
       0.142857
       0.142857
       0.142857
       0.142857
end-hydrodynamic-layers
water-quality-layers   
       1.000000
       1.000000
       1.000000
       1.000000
       1.000000
       1.000000
       1.000000
end-water-quality-layers
