file-created-by  Deltares, D-Flow FM Version 1.1.135.39106, Mar 12 2015, 10:27:07
file-creation-date  14:25:01, 12-03-2015                                        
task      full-coupling
geometry  unstructured z-layers
horizontal-aggregation no
reference-time           '20101001000000'
hydrodynamic-start-time  '20101001000000'
hydrodynamic-stop-time   '20101001100000'
hydrodynamic-timestep    '00000000003000'
conversion-ref-time      '20101001000000'
conversion-start-time    '20101001000000'
conversion-stop-time     '20101001100000'
conversion-timestep      '00000000003000'
grid-cells-first-direction        5995
grid-cells-second-direction          1
number-hydrodynamic-layers          30
number-horizontal-exchanges     344850
number-vertical-exchanges     173855
number-water-quality-segments-per-layer       5995
number-water-quality-layers         30
hydrodynamic-file        'z20_par'
aggregation-file         none
boundaries-file        'z20_par.bnd'
waqgeom-file             'z20_par_flowgeom.nc'
volumes-file             'z20_par.vol'
areas-file               'z20_par.are'
flows-file               'z20_par.flo'
pointers-file            'z20_par.poi'
lengths-file             'z20_par.len'
salinity-file            'z20_par.sal'
temperature-file         none
vert-diffusion-file      'z20_par.vdf'
horizontal-surfaces-file 'z20_par.srf'
surfaces-file            'z20_par.srfold'
shear-stresses-file      'z20_par.tau'
attributes-file        'z20_par.atr'
z-layers-ztop       0.000000
z-layers-zbot     -36.200921
hydrodynamic-layers
       0.033333
       0.033333
       0.033333
       0.033333
       0.033333
       0.033333
       0.033333
       0.033333
       0.033333
       0.033333
       0.033333
       0.033333
       0.033333
       0.033333
       0.033333
       0.033333
       0.033333
       0.033333
       0.033333
       0.033333
       0.033333
       0.033333
       0.033333
       0.033333
       0.033333
       0.033333
       0.033333
       0.033333
       0.033333
       0.033333
end-hydrodynamic-layers
water-quality-layers   
       1.000000
       1.000000
       1.000000
       1.000000
       1.000000
       1.000000
       1.000000
       1.000000
       1.000000
       1.000000
       1.000000
       1.000000
       1.000000
       1.000000
       1.000000
       1.000000
       1.000000
       1.000000
       1.000000
       1.000000
       1.000000
       1.000000
       1.000000
       1.000000
       1.000000
       1.000000
       1.000000
       1.000000
       1.000000
       1.000000
end-water-quality-layers
