# Generated on 10:50:37, 22-04-2013
# Deltares, D-Flow FM Version 1.1.62.27440M, Apr 22 2013, 10:40:48

[model]
Program              = D-Flow FM
Version              = 1.1.62.27440M
AutoStart            = 0                   # Autostart simulation after loading MDU or not (0=no, 1=autostart, 2=autostartstop).

[geometry]
NetFile              = flume_net.nc        # *_net.nc
BathymetryFile       =                     # *.xyb
WaterLevIniFile      =                     # Initial water levels sample file *.xyz
LandBoundaryFile     =                     # Only for plotting
ThinDamFile          =                     # *_thd.pli, Polyline(s) for tracing thin dams.
FixedWeirFile        =                     # *._fxw.pli, Polyline(s) x,y,z, z = fixed weir top levels
ProflocFile          =                     # *_proflocation.xyz)    x,y,z, z = profile refnumber
ProfdefFile          =                     # *_profdefinition.def) definition for all profile nrs
ManholeFile          =                     # *...
WaterLevIni          = 0.                  # Initial water level
Bedlevuni            = -0.2                # Uniform bottom level, (only if bedlevtype>=3, used at missing z values in netfile
BedlevType           = 3                   # 1 : Bottom levels at waterlevel cells (=flow nodes), like tiles xz, yz, bl , bob = max(bl left, bl right)
                                           # 2 : Bottom levels at velocity points  (=flow links),            xu, yu, blu, bob = blu,    bl = lowest connected link
                                           # 3 : Bottom levels at velocity points  (=flow links), using mean network levels xk, yk, zk  bl = lowest connected link
                                           # 4 : Bottom levels at velocity points  (=flow links), using min  network levels xk, yk, zk  bl = lowest connected link
                                           # 5 : Bottom levels at velocity points  (=flow links), using max  network levels xk, yk, zk  bl = lowest connected link
PartitionFile        =                     # *_part.pol, polyline(s) x,y
AngLat               = 0.                  # Angle of latitude (deg), 0=no Coriolis
Conveyance2D         = 3                   # -1:R=HU,0:R=H, 1:R=A/P, 2:K=analytic-1D conv, 3:K=analytic-2D conv
Makeorthocenters     = 0                   # 1=yes, 0=no switch from circumcentres to orthocentres in geominit
Dcenterinside        = 1.                  # limit cell center; 1.0:in cell <-> 0.0:on c/g
Kmx                  = 20                  # Max nr of vertical layers

[numerics]
CFLMax               = 0.7                 # Max. Courant nr.
CFLWaveFrac          = 0.1                 # Wave velocity fraction, total courant vel = u + cflw*wavevelocity
AdvecType            = 3                   # Adv type, 0=no, 1= Wenneker, qu-udzt, 2=1, q(uio-u), 3=Perot q(uio-u), 4=Perot q(ui-u), 5=Perot q(ui-u) without itself
Limtypmom            = 4                   # Limiter type for cell center advection velocity, 0=no, 1=minmod,2=vanLeer,3=Kooren,4=Monotone Central
Limtypsa             = 4                   # Limiter type for salinity transport,           0=no, 1=minmod,2=vanLeer,3=Kooren,4=Monotone Central
Icgsolver            = 4                   # Solver type , 1 = sobekGS_OMP, 2 = sobekGS_OMPthreadsafe, 3 = sobekGS, 4 = sobekGS + Saadilud, 5 = parallel/global Saad, 6 = parallel/Petsc, 7 = parallel/GS
Maxdegree            = 6                   # Maximum degree in Gauss elimination

[physics]
UnifFrictCoef        = 60.                 # Uniform friction coefficient, 0=no friction
UnifFrictType        = 0                   # 0=Chezy, 1=Manning, 2=White Colebrook, 3=z0 etc
Vicouv               = 0.                  # Uniform horizontal eddy viscosity (m2/s)
Dicouv               = 0.                  # Uniform horizontal eddy diffusivity (m2/s)
Vicoww               = 5.000000000000003E-006# Uniform vertical eddy viscosity  (m2/s)
Dicoww               = 0.                  # Uniform vertical eddy diffusivity  (m2/s)
Smagorinsky          = 0.                  # Add Smagorinsky horizontal turbulence : vicu = vicu + ( (Smagorinsky*dx)**2)*S, e.g. 0.1
Elder                = 0.                  # Add Elder contribution                : vicu = vicu + Elder*kappa*ustar*H/6),   e.g. 1.0
irov                 = 0                   # 0=free slip, 1 = partial slip using wall_ks
wall_ks              = 0.                  # Nikuradse roughness for side walls, wall_z0=wall_ks/30
TidalForcing         = 1                   # Tidal forcing (0=no, 1=yes) (only for jsferic == 1)
Salinity             = 1                   # Include salinity, (0=no, 1=yes)
InitialSalinity      = 0.                  # Inital salinity concentration (ppt)

[wind]
ICdtyp               = 2                   # ( ), Cd = const, 2=S&B 2 breakpoints, 3= S&B 3 breakpoints
Cdbreakpoints        = 6.3d-4 7.23d-3      # ( ),   e.g. 0.00063  0.00723
Windspeedbreakpoints = 0. 100.             # (m/s), e.g. 0.0      100.0

[time]
RefDate              = 19920901            # Reference date (yyyymmdd)
Tunit                =                     # Time units in MDU (H, M or S)
DtUser               = 3.                  # User timestep in seconds (interval for external forcing update & his/map output)
DtMax                = 1.5                 # Max timestep in seconds
DtInit               = 1.5                 # Initial timestep in seconds
AutoTimestep         = 1                   # Use CFL timestep limit or not (1/0)
TStart               = 0.                  # Start time w.r.t. RefDate (in TUnit)
TStop                = 6000.               # Stop  time w.r.t. RefDate (in TUnit)

[restart]
RestartFile          =                     # Restart file, only map, hence: *_map.nc
RestartDateTime      =                     # Restart time (YYYYMMDDHHMMSS)

[external forcing]
ExtForceFile         = flume.ext           # *.ext

[output]
ObsFile              =                     # *.xyn Coords+name of observation stations.
CrsFile              = flume_crs.pli       # *_crs.pli Polyline(s) definining cross section(s).
HisFile              =                     # *_his.nc History file in NetCDF format.
HisInterval          = 120.                # Interval (s) between history outputs
XLSInterval          = 0.                  # Interval (s) between XLS history
FlowGeomFile         =                     # *_flowgeom.nc Flow geometry file in NetCDF format.
MapFile              =                     # *_map.nc Map file in NetCDF format.
MapInterval          = 0.                  # Interval (s) between map file outputs
MapFormat            = 1                   # Map file format, 1: netCDF, 2: Tecplot, 3: netCFD and Tecplot
RstInterval          = 0.                  # Interval (s) between map file outputs
WaqFileBase          = 10layer             # Basename (without extension) for all Delwaq files to be written.
WaqInterval          = 0.                  # Interval (in s) between Delwaq file outputs
StatsInterval        = 0.                  # Interval (in s) between simulation statistics output.
SnapshotDir          =                     # Directory where snapshots/screendumps are saved.
TimingsInterval      = 0.                  # Timings output interval
OutputDir            = output
