  Using options from ini file : delwaq.ini
 Delft3D-WAQ version  4.5204 16-03-2009
 Only to be used by Buffel                                  
 (c) Deltares
 Execution start: 2012/04/13 11:26:53 
 total real    array space:       1433
 total integer array space:       2200
 total CHARACTER*20  space:        260
1                    Water quality calculation Sobek-WQ      
                                                             

                                                             
                     T0: 1996.01.01 00:00:00  (scu=       1s)

                     Initialisation from system file completed.

 No process decomposition active
 partit: noseg,nolay=           8           1 , nseghr=           8
 partit: npart=  1, assigning all segments to part "npart", none to other parts
 
 CONSTANT ON UNIT:        22, READING: delwaq-dispersi.wrk                                                                                                                                                                                                                                            
 SIMULATION TIME :  0D  0H  0M  0S ! 
 TIME IN FILE    :  0D  0H  0M  0S ! 
 CONSTANT ON UNIT:        26, READING: ..\WORK\Length.dat                                                                                                                                                                                                                                             
 SIMULATION TIME :  0D  0H  0M  0S ! 
 TIME IN FILE    :  0D  0H  0M  0S ! 
  Closure error correction disabled
 
 Initialising numerical options for method 15...18
 
 Preconditioner switch not found, using default
 switch = 3, corrections based on lower and upper 
 
 Maximum number of iterations not found, using default
 Maximum number of iterations set to :   100
 
 Relative tolerance not found, using default
 Relative tolerance set to :0.100E-06
 
 Scaling switch not found, using default
 switch = 1, scaling is switched on
 
 Iteration report switch found in input
 switch = 0, iteration report is switched off
 
 
 Extra functionality DLWQTR
 End extra functionality DLWQTR
  -openpb command line argument found
  using dll : C:\d3dwaq_openpl.dll
1
                                             Water quality calculation Sobek-WQ      
                                                                                     
                                                                                     
                                             T0: 1996.01.01 00:00:00  (scu=       1s)
   0.00% Completed


 DUMP OF INTERMEDIATE RESULTS IN SELECTED SEGMENTS
  TIME =   0D  0H  0M  0S .
 
 TOTAL MASS IN SYSTEM 1.7500E+10
 CHANGES BY PROCESSES 0.0000E+00
 CHANGES BY LOADS     0.0000E+00
 BOUNDARY INFLOWS     0.0000E+00
 BOUNDARY OUTFLOWS    0.0000E+00
                      C          
                                 
 CONCENTRATION                           
 Segment    1         1.0000E+06
 Segment    2         1.0000E+06
 Segment    3         1.0000E+06
 Segment    4         1.0000E+06
 Segment    5         1.0000E+06
 Segment    6         1.0000E+06
 Segment    7         1.0000E+06
 Segment    8         1.0000E+06
 
   0.30% Completed


 DUMP OF INTERMEDIATE RESULTS IN SELECTED SEGMENTS
  TIME =   0D  1H  0M  0S .
 
 TOTAL MASS IN SYSTEM 1.7135E+10
 CHANGES BY PROCESSES-3.6458E+08
 CHANGES BY LOADS     0.0000E+00
 BOUNDARY INFLOWS     0.0000E+00
 BOUNDARY OUTFLOWS    0.0000E+00
                      C          
                                 
 CONCENTRATION                           
 Segment    1         9.7917E+05
 Segment    2         9.7917E+05
 Segment    3         9.7917E+05
 Segment    4         9.7917E+05
 Segment    5         9.7917E+05
 Segment    6         9.7917E+05
 Segment    7         9.7917E+05
 Segment    8         9.7917E+05
 
1
                                             Water quality calculation Sobek-WQ      
                                                                                     
                                                                                     
                                             T0: 1996.01.01 00:00:00  (scu=       1s)
   0.60% Completed


 DUMP OF INTERMEDIATE RESULTS IN SELECTED SEGMENTS
  TIME =   0D  2H  0M  0S .
 
 TOTAL MASS IN SYSTEM 1.6778E+10
 CHANGES BY PROCESSES-3.5699E+08
 CHANGES BY LOADS     0.0000E+00
 BOUNDARY INFLOWS     0.0000E+00
 BOUNDARY OUTFLOWS    0.0000E+00
                      C          
                                 
 CONCENTRATION                           
 Segment    1         9.5877E+05
 Segment    2         9.5877E+05
 Segment    3         9.5877E+05
 Segment    4         9.5877E+05
 Segment    5         9.5877E+05
 Segment    6         9.5877E+05
 Segment    7         9.5877E+05
 Segment    8         9.5877E+05
 
   0.89% Completed


 DUMP OF INTERMEDIATE RESULTS IN SELECTED SEGMENTS
  TIME =   0D  3H  0M  0S .
 
 TOTAL MASS IN SYSTEM 1.6429E+10
 CHANGES BY PROCESSES-3.4955E+08
 CHANGES BY LOADS     0.0000E+00
 BOUNDARY INFLOWS     0.0000E+00
 BOUNDARY OUTFLOWS    0.0000E+00
                      C          
                                 
 CONCENTRATION                           
 Segment    1         9.3879E+05
 Segment    2         9.3879E+05
 Segment    3         9.3879E+05
 Segment    4         9.3879E+05
 Segment    5         9.3879E+05
 Segment    6         9.3879E+05
 Segment    7         9.3879E+05
 Segment    8         9.3879E+05
 
1
                                             Water quality calculation Sobek-WQ      
                                                                                     
                                                                                     
                                             T0: 1996.01.01 00:00:00  (scu=       1s)
   1.19% Completed


 DUMP OF INTERMEDIATE RESULTS IN SELECTED SEGMENTS
  TIME =   0D  4H  0M  0S .
 
 TOTAL MASS IN SYSTEM 1.6087E+10
 CHANGES BY PROCESSES-3.4227E+08
 CHANGES BY LOADS     0.0000E+00
 BOUNDARY INFLOWS     0.0000E+00
 BOUNDARY OUTFLOWS    0.0000E+00
                      C          
                                 
 CONCENTRATION                           
 Segment    1         9.1924E+05
 Segment    2         9.1924E+05
 Segment    3         9.1924E+05
 Segment    4         9.1924E+05
 Segment    5         9.1924E+05
 Segment    6         9.1924E+05
 Segment    7         9.1924E+05
 Segment    8         9.1924E+05
 
   1.49% Completed


 DUMP OF INTERMEDIATE RESULTS IN SELECTED SEGMENTS
  TIME =   0D  5H  0M  0S .
 
 TOTAL MASS IN SYSTEM 1.5751E+10
 CHANGES BY PROCESSES-3.3514E+08
 CHANGES BY LOADS     0.0000E+00
 BOUNDARY INFLOWS     0.0000E+00
 BOUNDARY OUTFLOWS    0.0000E+00
                      C          
                                 
 CONCENTRATION                           
 Segment    1         9.0008E+05
 Segment    2         9.0008E+05
 Segment    3         9.0008E+05
 Segment    4         9.0008E+05
 Segment    5         9.0008E+05
 Segment    6         9.0008E+05
 Segment    7         9.0008E+05
 Segment    8         9.0008E+05
 
1
                                             Water quality calculation Sobek-WQ      
                                                                                     
                                                                                     
                                             T0: 1996.01.01 00:00:00  (scu=       1s)
   1.79% Completed


 DUMP OF INTERMEDIATE RESULTS IN SELECTED SEGMENTS
  TIME =   0D  6H  0M  0S .
 
 TOTAL MASS IN SYSTEM 1.5423E+10
 CHANGES BY PROCESSES-3.2816E+08
 CHANGES BY LOADS     0.0000E+00
 BOUNDARY INFLOWS     0.0000E+00
 BOUNDARY OUTFLOWS    0.0000E+00
                      C          
                                 
 CONCENTRATION                           
 Segment    1         8.8133E+05
 Segment    2         8.8133E+05
 Segment    3         8.8133E+05
 Segment    4         8.8133E+05
 Segment    5         8.8133E+05
 Segment    6         8.8133E+05
 Segment    7         8.8133E+05
 Segment    8         8.8133E+05
 
   2.08% Completed


 DUMP OF INTERMEDIATE RESULTS IN SELECTED SEGMENTS
  TIME =   0D  7H  0M  0S .
 
 TOTAL MASS IN SYSTEM 1.5102E+10
 CHANGES BY PROCESSES-3.2132E+08
 CHANGES BY LOADS     0.0000E+00
 BOUNDARY INFLOWS     0.0000E+00
 BOUNDARY OUTFLOWS    0.0000E+00
                      C          
                                 
 CONCENTRATION                           
 Segment    1         8.6297E+05
 Segment    2         8.6297E+05
 Segment    3         8.6297E+05
 Segment    4         8.6297E+05
 Segment    5         8.6297E+05
 Segment    6         8.6297E+05
 Segment    7         8.6297E+05
 Segment    8         8.6297E+05
 
1
                                             Water quality calculation Sobek-WQ      
                                                                                     
                                                                                     
                                             T0: 1996.01.01 00:00:00  (scu=       1s)
   2.38% Completed


 DUMP OF INTERMEDIATE RESULTS IN SELECTED SEGMENTS
  TIME =   0D  8H  0M  0S .
 
 TOTAL MASS IN SYSTEM 1.4787E+10
 CHANGES BY PROCESSES-3.1462E+08
 CHANGES BY LOADS     0.0000E+00
 BOUNDARY INFLOWS     0.0000E+00
 BOUNDARY OUTFLOWS    0.0000E+00
                      C          
                                 
 CONCENTRATION                           
 Segment    1         8.4499E+05
 Segment    2         8.4499E+05
 Segment    3         8.4499E+05
 Segment    4         8.4499E+05
 Segment    5         8.4499E+05
 Segment    6         8.4499E+05
 Segment    7         8.4499E+05
 Segment    8         8.4499E+05
 
   2.68% Completed


 DUMP OF INTERMEDIATE RESULTS IN SELECTED SEGMENTS
  TIME =   0D  9H  0M  0S .
 
 TOTAL MASS IN SYSTEM 1.4479E+10
 CHANGES BY PROCESSES-3.0807E+08
 CHANGES BY LOADS     0.0000E+00
 BOUNDARY INFLOWS     0.0000E+00
 BOUNDARY OUTFLOWS    0.0000E+00
                      C          
                                 
 CONCENTRATION                           
 Segment    1         8.2739E+05
 Segment    2         8.2739E+05
 Segment    3         8.2739E+05
 Segment    4         8.2739E+05
 Segment    5         8.2739E+05
 Segment    6         8.2739E+05
 Segment    7         8.2739E+05
 Segment    8         8.2739E+05
 
1
                                             Water quality calculation Sobek-WQ      
                                                                                     
                                                                                     
                                             T0: 1996.01.01 00:00:00  (scu=       1s)
   2.98% Completed


 DUMP OF INTERMEDIATE RESULTS IN SELECTED SEGMENTS
  TIME =   0D 10H  0M  0S .
 
 TOTAL MASS IN SYSTEM 1.4178E+10
 CHANGES BY PROCESSES-3.0165E+08
 CHANGES BY LOADS     0.0000E+00
 BOUNDARY INFLOWS     0.0000E+00
 BOUNDARY OUTFLOWS    0.0000E+00
                      C          
                                 
 CONCENTRATION                           
 Segment    1         8.1015E+05
 Segment    2         8.1015E+05
 Segment    3         8.1015E+05
 Segment    4         8.1015E+05
 Segment    5         8.1015E+05
 Segment    6         8.1015E+05
 Segment    7         8.1015E+05
 Segment    8         8.1015E+05
 
   3.27% Completed


 DUMP OF INTERMEDIATE RESULTS IN SELECTED SEGMENTS
  TIME =   0D 11H  0M  0S .
 
 TOTAL MASS IN SYSTEM 1.3882E+10
 CHANGES BY PROCESSES-2.9537E+08
 CHANGES BY LOADS     0.0000E+00
 BOUNDARY INFLOWS     0.0000E+00
 BOUNDARY OUTFLOWS    0.0000E+00
                      C          
                                 
 CONCENTRATION                           
 Segment    1         7.9327E+05
 Segment    2         7.9327E+05
 Segment    3         7.9327E+05
 Segment    4         7.9327E+05
 Segment    5         7.9327E+05
 Segment    6         7.9327E+05
 Segment    7         7.9327E+05
 Segment    8         7.9327E+05
 
1
                                             Water quality calculation Sobek-WQ      
                                                                                     
                                                                                     
                                             T0: 1996.01.01 00:00:00  (scu=       1s)
   3.57% Completed


 DUMP OF INTERMEDIATE RESULTS IN SELECTED SEGMENTS
  TIME =   0D 12H  0M  0S .
 
 TOTAL MASS IN SYSTEM 1.3593E+10
 CHANGES BY PROCESSES-2.8921E+08
 CHANGES BY LOADS     0.0000E+00
 BOUNDARY INFLOWS     0.0000E+00
 BOUNDARY OUTFLOWS    0.0000E+00
                      C          
                                 
 CONCENTRATION                           
 Segment    1         7.7675E+05
 Segment    2         7.7675E+05
 Segment    3         7.7675E+05
 Segment    4         7.7675E+05
 Segment    5         7.7675E+05
 Segment    6         7.7675E+05
 Segment    7         7.7675E+05
 Segment    8         7.7675E+05
 
   3.87% Completed


 DUMP OF INTERMEDIATE RESULTS IN SELECTED SEGMENTS
  TIME =   0D 13H  0M  0S .
 
 TOTAL MASS IN SYSTEM 1.3310E+10
 CHANGES BY PROCESSES-2.8319E+08
 CHANGES BY LOADS     0.0000E+00
 BOUNDARY INFLOWS     0.0000E+00
 BOUNDARY OUTFLOWS    0.0000E+00
                      C          
                                 
 CONCENTRATION                           
 Segment    1         7.6056E+05
 Segment    2         7.6056E+05
 Segment    3         7.6056E+05
 Segment    4         7.6056E+05
 Segment    5         7.6056E+05
 Segment    6         7.6056E+05
 Segment    7         7.6056E+05
 Segment    8         7.6056E+05
 
1
                                             Water quality calculation Sobek-WQ      
                                                                                     
                                                                                     
                                             T0: 1996.01.01 00:00:00  (scu=       1s)
   4.17% Completed


 DUMP OF INTERMEDIATE RESULTS IN SELECTED SEGMENTS
  TIME =   0D 14H  0M  0S .
 
 TOTAL MASS IN SYSTEM 1.3033E+10
 CHANGES BY PROCESSES-2.7729E+08
 CHANGES BY LOADS     0.0000E+00
 BOUNDARY INFLOWS     0.0000E+00
 BOUNDARY OUTFLOWS    0.0000E+00
                      C          
                                 
 CONCENTRATION                           
 Segment    1         7.4472E+05
 Segment    2         7.4472E+05
 Segment    3         7.4472E+05
 Segment    4         7.4472E+05
 Segment    5         7.4472E+05
 Segment    6         7.4472E+05
 Segment    7         7.4472E+05
 Segment    8         7.4472E+05
 
   4.46% Completed


 DUMP OF INTERMEDIATE RESULTS IN SELECTED SEGMENTS
  TIME =   0D 15H  0M  0S .
 
 TOTAL MASS IN SYSTEM 1.2761E+10
 CHANGES BY PROCESSES-2.7151E+08
 CHANGES BY LOADS     0.0000E+00
 BOUNDARY INFLOWS     0.0000E+00
 BOUNDARY OUTFLOWS    0.0000E+00
                      C          
                                 
 CONCENTRATION                           
 Segment    1         7.2920E+05
 Segment    2         7.2920E+05
 Segment    3         7.2920E+05
 Segment    4         7.2920E+05
 Segment    5         7.2920E+05
 Segment    6         7.2920E+05
 Segment    7         7.2920E+05
 Segment    8         7.2920E+05
 
1
                                             Water quality calculation Sobek-WQ      
                                                                                     
                                                                                     
                                             T0: 1996.01.01 00:00:00  (scu=       1s)
   4.76% Completed


 DUMP OF INTERMEDIATE RESULTS IN SELECTED SEGMENTS
  TIME =   0D 16H  0M  0S .
 
 TOTAL MASS IN SYSTEM 1.2495E+10
 CHANGES BY PROCESSES-2.6586E+08
 CHANGES BY LOADS     0.0000E+00
 BOUNDARY INFLOWS     0.0000E+00
 BOUNDARY OUTFLOWS    0.0000E+00
                      C          
                                 
 CONCENTRATION                           
 Segment    1         7.1401E+05
 Segment    2         7.1401E+05
 Segment    3         7.1401E+05
 Segment    4         7.1401E+05
 Segment    5         7.1401E+05
 Segment    6         7.1401E+05
 Segment    7         7.1401E+05
 Segment    8         7.1401E+05
 
   5.06% Completed


 DUMP OF INTERMEDIATE RESULTS IN SELECTED SEGMENTS
  TIME =   0D 17H  0M  0S .
 
 TOTAL MASS IN SYSTEM 1.2235E+10
 CHANGES BY PROCESSES-2.6032E+08
 CHANGES BY LOADS     0.0000E+00
 BOUNDARY INFLOWS     0.0000E+00
 BOUNDARY OUTFLOWS    0.0000E+00
                      C          
                                 
 CONCENTRATION                           
 Segment    1         6.9914E+05
 Segment    2         6.9914E+05
 Segment    3         6.9914E+05
 Segment    4         6.9914E+05
 Segment    5         6.9914E+05
 Segment    6         6.9914E+05
 Segment    7         6.9914E+05
 Segment    8         6.9914E+05
 
1
                                             Water quality calculation Sobek-WQ      
                                                                                     
                                                                                     
                                             T0: 1996.01.01 00:00:00  (scu=       1s)
   5.36% Completed


 DUMP OF INTERMEDIATE RESULTS IN SELECTED SEGMENTS
  TIME =   0D 18H  0M  0S .
 
 TOTAL MASS IN SYSTEM 1.1980E+10
 CHANGES BY PROCESSES-2.5489E+08
 CHANGES BY LOADS     0.0000E+00
 BOUNDARY INFLOWS     0.0000E+00
 BOUNDARY OUTFLOWS    0.0000E+00
                      C          
                                 
 CONCENTRATION                           
 Segment    1         6.8457E+05
 Segment    2         6.8457E+05
 Segment    3         6.8457E+05
 Segment    4         6.8457E+05
 Segment    5         6.8457E+05
 Segment    6         6.8457E+05
 Segment    7         6.8457E+05
 Segment    8         6.8457E+05
 
   5.65% Completed


 DUMP OF INTERMEDIATE RESULTS IN SELECTED SEGMENTS
  TIME =   0D 19H  0M  0S .
 
 TOTAL MASS IN SYSTEM 1.1730E+10
 CHANGES BY PROCESSES-2.4958E+08
 CHANGES BY LOADS     0.0000E+00
 BOUNDARY INFLOWS     0.0000E+00
 BOUNDARY OUTFLOWS    0.0000E+00
                      C          
                                 
 CONCENTRATION                           
 Segment    1         6.7031E+05
 Segment    2         6.7031E+05
 Segment    3         6.7031E+05
 Segment    4         6.7031E+05
 Segment    5         6.7031E+05
 Segment    6         6.7031E+05
 Segment    7         6.7031E+05
 Segment    8         6.7031E+05
 
1
                                             Water quality calculation Sobek-WQ      
                                                                                     
                                                                                     
                                             T0: 1996.01.01 00:00:00  (scu=       1s)
   5.95% Completed


 DUMP OF INTERMEDIATE RESULTS IN SELECTED SEGMENTS
  TIME =   0D 20H  0M  0S .
 
 TOTAL MASS IN SYSTEM 1.1486E+10
 CHANGES BY PROCESSES-2.4438E+08
 CHANGES BY LOADS     0.0000E+00
 BOUNDARY INFLOWS     0.0000E+00
 BOUNDARY OUTFLOWS    0.0000E+00
                      C          
                                 
 CONCENTRATION                           
 Segment    1         6.5635E+05
 Segment    2         6.5635E+05
 Segment    3         6.5635E+05
 Segment    4         6.5635E+05
 Segment    5         6.5635E+05
 Segment    6         6.5635E+05
 Segment    7         6.5635E+05
 Segment    8         6.5635E+05
 
   6.25% Completed


 DUMP OF INTERMEDIATE RESULTS IN SELECTED SEGMENTS
  TIME =   0D 21H  0M  0S .
 
 TOTAL MASS IN SYSTEM 1.1247E+10
 CHANGES BY PROCESSES-2.3929E+08
 CHANGES BY LOADS     0.0000E+00
 BOUNDARY INFLOWS     0.0000E+00
 BOUNDARY OUTFLOWS    0.0000E+00
                      C          
                                 
 CONCENTRATION                           
 Segment    1         6.4267E+05
 Segment    2         6.4267E+05
 Segment    3         6.4267E+05
 Segment    4         6.4267E+05
 Segment    5         6.4267E+05
 Segment    6         6.4267E+05
 Segment    7         6.4267E+05
 Segment    8         6.4267E+05
 
1
                                             Water quality calculation Sobek-WQ      
                                                                                     
                                                                                     
                                             T0: 1996.01.01 00:00:00  (scu=       1s)
   6.55% Completed


 DUMP OF INTERMEDIATE RESULTS IN SELECTED SEGMENTS
  TIME =   0D 22H  0M  0S .
 
 TOTAL MASS IN SYSTEM 1.1012E+10
 CHANGES BY PROCESSES-2.3431E+08
 CHANGES BY LOADS     0.0000E+00
 BOUNDARY INFLOWS     0.0000E+00
 BOUNDARY OUTFLOWS    0.0000E+00
                      C          
                                 
 CONCENTRATION                           
 Segment    1         6.2928E+05
 Segment    2         6.2928E+05
 Segment    3         6.2928E+05
 Segment    4         6.2928E+05
 Segment    5         6.2928E+05
 Segment    6         6.2928E+05
 Segment    7         6.2928E+05
 Segment    8         6.2928E+05
 
   6.85% Completed


 DUMP OF INTERMEDIATE RESULTS IN SELECTED SEGMENTS
  TIME =   0D 23H  0M  0S .
 
 TOTAL MASS IN SYSTEM 1.0783E+10
 CHANGES BY PROCESSES-2.2943E+08
 CHANGES BY LOADS     0.0000E+00
 BOUNDARY INFLOWS     0.0000E+00
 BOUNDARY OUTFLOWS    0.0000E+00
                      C          
                                 
 CONCENTRATION                           
 Segment    1         6.1617E+05
 Segment    2         6.1617E+05
 Segment    3         6.1617E+05
 Segment    4         6.1617E+05
 Segment    5         6.1617E+05
 Segment    6         6.1617E+05
 Segment    7         6.1617E+05
 Segment    8         6.1617E+05
 
1
                                             Water quality calculation Sobek-WQ      
                                                                                     
                                                                                     
                                             T0: 1996.01.01 00:00:00  (scu=       1s)
   7.14% Completed


 DUMP OF INTERMEDIATE RESULTS IN SELECTED SEGMENTS
  TIME =   1D  0H  0M  0S .
 
 TOTAL MASS IN SYSTEM 1.0558E+10
 CHANGES BY PROCESSES-2.2465E+08
 CHANGES BY LOADS     0.0000E+00
 BOUNDARY INFLOWS     0.0000E+00
 BOUNDARY OUTFLOWS    0.0000E+00
                      C          
                                 
 CONCENTRATION                           
 Segment    1         6.0334E+05
 Segment    2         6.0334E+05
 Segment    3         6.0334E+05
 Segment    4         6.0334E+05
 Segment    5         6.0334E+05
 Segment    6         6.0334E+05
 Segment    7         6.0334E+05
 Segment    8         6.0334E+05
 
   7.44% Completed


 DUMP OF INTERMEDIATE RESULTS IN SELECTED SEGMENTS
  TIME =   1D  1H  0M  0S .
 
 TOTAL MASS IN SYSTEM 1.0338E+10
 CHANGES BY PROCESSES-2.1997E+08
 CHANGES BY LOADS     0.0000E+00
 BOUNDARY INFLOWS     0.0000E+00
 BOUNDARY OUTFLOWS    0.0000E+00
                      C          
                                 
 CONCENTRATION                           
 Segment    1         5.9077E+05
 Segment    2         5.9077E+05
 Segment    3         5.9077E+05
 Segment    4         5.9077E+05
 Segment    5         5.9077E+05
 Segment    6         5.9077E+05
 Segment    7         5.9077E+05
 Segment    8         5.9077E+05
 
1
                                             Water quality calculation Sobek-WQ      
                                                                                     
                                                                                     
                                             T0: 1996.01.01 00:00:00  (scu=       1s)
   7.74% Completed


 DUMP OF INTERMEDIATE RESULTS IN SELECTED SEGMENTS
  TIME =   1D  2H  0M  0S .
 
 TOTAL MASS IN SYSTEM 1.0123E+10
 CHANGES BY PROCESSES-2.1538E+08
 CHANGES BY LOADS     0.0000E+00
 BOUNDARY INFLOWS     0.0000E+00
 BOUNDARY OUTFLOWS    0.0000E+00
                      C          
                                 
 CONCENTRATION                           
 Segment    1         5.7846E+05
 Segment    2         5.7846E+05
 Segment    3         5.7846E+05
 Segment    4         5.7846E+05
 Segment    5         5.7846E+05
 Segment    6         5.7846E+05
 Segment    7         5.7846E+05
 Segment    8         5.7846E+05
 
   8.04% Completed


 DUMP OF INTERMEDIATE RESULTS IN SELECTED SEGMENTS
  TIME =   1D  3H  0M  0S .
 
 TOTAL MASS IN SYSTEM 9.9121E+09
 CHANGES BY PROCESSES-2.1090E+08
 CHANGES BY LOADS     0.0000E+00
 BOUNDARY INFLOWS     0.0000E+00
 BOUNDARY OUTFLOWS    0.0000E+00
                      C          
                                 
 CONCENTRATION                           
 Segment    1         5.6641E+05
 Segment    2         5.6641E+05
 Segment    3         5.6641E+05
 Segment    4         5.6641E+05
 Segment    5         5.6641E+05
 Segment    6         5.6641E+05
 Segment    7         5.6641E+05
 Segment    8         5.6641E+05
 
1
                                             Water quality calculation Sobek-WQ      
                                                                                     
                                                                                     
                                             T0: 1996.01.01 00:00:00  (scu=       1s)
   8.33% Completed


 DUMP OF INTERMEDIATE RESULTS IN SELECTED SEGMENTS
  TIME =   1D  4H  0M  0S .
 
 TOTAL MASS IN SYSTEM 9.7056E+09
 CHANGES BY PROCESSES-2.0650E+08
 CHANGES BY LOADS     0.0000E+00
 BOUNDARY INFLOWS     0.0000E+00
 BOUNDARY OUTFLOWS    0.0000E+00
                      C          
                                 
 CONCENTRATION                           
 Segment    1         5.5461E+05
 Segment    2         5.5461E+05
 Segment    3         5.5461E+05
 Segment    4         5.5461E+05
 Segment    5         5.5461E+05
 Segment    6         5.5461E+05
 Segment    7         5.5461E+05
 Segment    8         5.5461E+05
 
   8.63% Completed


 DUMP OF INTERMEDIATE RESULTS IN SELECTED SEGMENTS
  TIME =   1D  5H  0M  0S .
 
 TOTAL MASS IN SYSTEM 9.5034E+09
 CHANGES BY PROCESSES-2.0220E+08
 CHANGES BY LOADS     0.0000E+00
 BOUNDARY INFLOWS     0.0000E+00
 BOUNDARY OUTFLOWS    0.0000E+00
                      C          
                                 
 CONCENTRATION                           
 Segment    1         5.4305E+05
 Segment    2         5.4305E+05
 Segment    3         5.4305E+05
 Segment    4         5.4305E+05
 Segment    5         5.4305E+05
 Segment    6         5.4305E+05
 Segment    7         5.4305E+05
 Segment    8         5.4305E+05
 
1
                                             Water quality calculation Sobek-WQ      
                                                                                     
                                                                                     
                                             T0: 1996.01.01 00:00:00  (scu=       1s)
   8.93% Completed


 DUMP OF INTERMEDIATE RESULTS IN SELECTED SEGMENTS
  TIME =   1D  6H  0M  0S .
 
 TOTAL MASS IN SYSTEM 9.3054E+09
 CHANGES BY PROCESSES-1.9799E+08
 CHANGES BY LOADS     0.0000E+00
 BOUNDARY INFLOWS     0.0000E+00
 BOUNDARY OUTFLOWS    0.0000E+00
                      C          
                                 
 CONCENTRATION                           
 Segment    1         5.3174E+05
 Segment    2         5.3174E+05
 Segment    3         5.3174E+05
 Segment    4         5.3174E+05
 Segment    5         5.3174E+05
 Segment    6         5.3174E+05
 Segment    7         5.3174E+05
 Segment    8         5.3174E+05
 
   9.23% Completed


 DUMP OF INTERMEDIATE RESULTS IN SELECTED SEGMENTS
  TIME =   1D  7H  0M  0S .
 
 TOTAL MASS IN SYSTEM 9.1116E+09
 CHANGES BY PROCESSES-1.9386E+08
 CHANGES BY LOADS     0.0000E+00
 BOUNDARY INFLOWS     0.0000E+00
 BOUNDARY OUTFLOWS    0.0000E+00
                      C          
                                 
 CONCENTRATION                           
 Segment    1         5.2066E+05
 Segment    2         5.2066E+05
 Segment    3         5.2066E+05
 Segment    4         5.2066E+05
 Segment    5         5.2066E+05
 Segment    6         5.2066E+05
 Segment    7         5.2066E+05
 Segment    8         5.2066E+05
 
1
                                             Water quality calculation Sobek-WQ      
                                                                                     
                                                                                     
                                             T0: 1996.01.01 00:00:00  (scu=       1s)
   9.52% Completed


 DUMP OF INTERMEDIATE RESULTS IN SELECTED SEGMENTS
  TIME =   1D  8H  0M  0S .
 
 TOTAL MASS IN SYSTEM 8.9218E+09
 CHANGES BY PROCESSES-1.8982E+08
 CHANGES BY LOADS     0.0000E+00
 BOUNDARY INFLOWS     0.0000E+00
 BOUNDARY OUTFLOWS    0.0000E+00
                      C          
                                 
 CONCENTRATION                           
 Segment    1         5.0981E+05
 Segment    2         5.0981E+05
 Segment    3         5.0981E+05
 Segment    4         5.0981E+05
 Segment    5         5.0981E+05
 Segment    6         5.0981E+05
 Segment    7         5.0981E+05
 Segment    8         5.0981E+05
 
   9.82% Completed


 DUMP OF INTERMEDIATE RESULTS IN SELECTED SEGMENTS
  TIME =   1D  9H  0M  0S .
 
 TOTAL MASS IN SYSTEM 8.7359E+09
 CHANGES BY PROCESSES-1.8587E+08
 CHANGES BY LOADS     0.0000E+00
 BOUNDARY INFLOWS     0.0000E+00
 BOUNDARY OUTFLOWS    0.0000E+00
                      C          
                                 
 CONCENTRATION                           
 Segment    1         4.9919E+05
 Segment    2         4.9919E+05
 Segment    3         4.9919E+05
 Segment    4         4.9919E+05
 Segment    5         4.9919E+05
 Segment    6         4.9919E+05
 Segment    7         4.9919E+05
 Segment    8         4.9919E+05
 
1
                                             Water quality calculation Sobek-WQ      
                                                                                     
                                                                                     
                                             T0: 1996.01.01 00:00:00  (scu=       1s)
  10.12% Completed


 DUMP OF INTERMEDIATE RESULTS IN SELECTED SEGMENTS
  TIME =   1D 10H  0M  0S .
 
 TOTAL MASS IN SYSTEM 8.5539E+09
 CHANGES BY PROCESSES-1.8200E+08
 CHANGES BY LOADS     0.0000E+00
 BOUNDARY INFLOWS     0.0000E+00
 BOUNDARY OUTFLOWS    0.0000E+00
                      C          
                                 
 CONCENTRATION                           
 Segment    1         4.8879E+05
 Segment    2         4.8879E+05
 Segment    3         4.8879E+05
 Segment    4         4.8879E+05
 Segment    5         4.8879E+05
 Segment    6         4.8879E+05
 Segment    7         4.8879E+05
 Segment    8         4.8879E+05
 
  10.42% Completed


 DUMP OF INTERMEDIATE RESULTS IN SELECTED SEGMENTS
  TIME =   1D 11H  0M  0S .
 
 TOTAL MASS IN SYSTEM 8.3757E+09
 CHANGES BY PROCESSES-1.7821E+08
 CHANGES BY LOADS     0.0000E+00
 BOUNDARY INFLOWS     0.0000E+00
 BOUNDARY OUTFLOWS    0.0000E+00
                      C          
                                 
 CONCENTRATION                           
 Segment    1         4.7861E+05
 Segment    2         4.7861E+05
 Segment    3         4.7861E+05
 Segment    4         4.7861E+05
 Segment    5         4.7861E+05
 Segment    6         4.7861E+05
 Segment    7         4.7861E+05
 Segment    8         4.7861E+05
 
1
                                             Water quality calculation Sobek-WQ      
                                                                                     
                                                                                     
                                             T0: 1996.01.01 00:00:00  (scu=       1s)
  10.71% Completed


 DUMP OF INTERMEDIATE RESULTS IN SELECTED SEGMENTS
  TIME =   1D 12H  0M  0S .
 
 TOTAL MASS IN SYSTEM 8.2012E+09
 CHANGES BY PROCESSES-1.7449E+08
 CHANGES BY LOADS     0.0000E+00
 BOUNDARY INFLOWS     0.0000E+00
 BOUNDARY OUTFLOWS    0.0000E+00
                      C          
                                 
 CONCENTRATION                           
 Segment    1         4.6864E+05
 Segment    2         4.6864E+05
 Segment    3         4.6864E+05
 Segment    4         4.6864E+05
 Segment    5         4.6864E+05
 Segment    6         4.6864E+05
 Segment    7         4.6864E+05
 Segment    8         4.6864E+05
 
  11.01% Completed


 DUMP OF INTERMEDIATE RESULTS IN SELECTED SEGMENTS
  TIME =   1D 13H  0M  0S .
 
 TOTAL MASS IN SYSTEM 8.0303E+09
 CHANGES BY PROCESSES-1.7086E+08
 CHANGES BY LOADS     0.0000E+00
 BOUNDARY INFLOWS     0.0000E+00
 BOUNDARY OUTFLOWS    0.0000E+00
                      C          
                                 
 CONCENTRATION                           
 Segment    1         4.5888E+05
 Segment    2         4.5888E+05
 Segment    3         4.5888E+05
 Segment    4         4.5888E+05
 Segment    5         4.5888E+05
 Segment    6         4.5888E+05
 Segment    7         4.5888E+05
 Segment    8         4.5888E+05
 
1
                                             Water quality calculation Sobek-WQ      
                                                                                     
                                                                                     
                                             T0: 1996.01.01 00:00:00  (scu=       1s)
  11.31% Completed


 DUMP OF INTERMEDIATE RESULTS IN SELECTED SEGMENTS
  TIME =   1D 14H  0M  0S .
 
 TOTAL MASS IN SYSTEM 7.8630E+09
 CHANGES BY PROCESSES-1.6730E+08
 CHANGES BY LOADS     0.0000E+00
 BOUNDARY INFLOWS     0.0000E+00
 BOUNDARY OUTFLOWS    0.0000E+00
                      C          
                                 
 CONCENTRATION                           
 Segment    1         4.4932E+05
 Segment    2         4.4932E+05
 Segment    3         4.4932E+05
 Segment    4         4.4932E+05
 Segment    5         4.4932E+05
 Segment    6         4.4932E+05
 Segment    7         4.4932E+05
 Segment    8         4.4932E+05
 
  11.61% Completed


 DUMP OF INTERMEDIATE RESULTS IN SELECTED SEGMENTS
  TIME =   1D 15H  0M  0S .
 
 TOTAL MASS IN SYSTEM 7.6992E+09
 CHANGES BY PROCESSES-1.6381E+08
 CHANGES BY LOADS     0.0000E+00
 BOUNDARY INFLOWS     0.0000E+00
 BOUNDARY OUTFLOWS    0.0000E+00
                      C          
                                 
 CONCENTRATION                           
 Segment    1         4.3996E+05
 Segment    2         4.3996E+05
 Segment    3         4.3996E+05
 Segment    4         4.3996E+05
 Segment    5         4.3996E+05
 Segment    6         4.3996E+05
 Segment    7         4.3996E+05
 Segment    8         4.3996E+05
 
1
                                             Water quality calculation Sobek-WQ      
                                                                                     
                                                                                     
                                             T0: 1996.01.01 00:00:00  (scu=       1s)
  11.90% Completed


 DUMP OF INTERMEDIATE RESULTS IN SELECTED SEGMENTS
  TIME =   1D 16H  0M  0S .
 
 TOTAL MASS IN SYSTEM 7.5388E+09
 CHANGES BY PROCESSES-1.6040E+08
 CHANGES BY LOADS     0.0000E+00
 BOUNDARY INFLOWS     0.0000E+00
 BOUNDARY OUTFLOWS    0.0000E+00
                      C          
                                 
 CONCENTRATION                           
 Segment    1         4.3079E+05
 Segment    2         4.3079E+05
 Segment    3         4.3079E+05
 Segment    4         4.3079E+05
 Segment    5         4.3079E+05
 Segment    6         4.3079E+05
 Segment    7         4.3079E+05
 Segment    8         4.3079E+05
 
  12.20% Completed


 DUMP OF INTERMEDIATE RESULTS IN SELECTED SEGMENTS
  TIME =   1D 17H  0M  0S .
 
 TOTAL MASS IN SYSTEM 7.3818E+09
 CHANGES BY PROCESSES-1.5706E+08
 CHANGES BY LOADS     0.0000E+00
 BOUNDARY INFLOWS     0.0000E+00
 BOUNDARY OUTFLOWS    0.0000E+00
                      C          
                                 
 CONCENTRATION                           
 Segment    1         4.2181E+05
 Segment    2         4.2181E+05
 Segment    3         4.2181E+05
 Segment    4         4.2181E+05
 Segment    5         4.2181E+05
 Segment    6         4.2181E+05
 Segment    7         4.2181E+05
 Segment    8         4.2181E+05
 
1
                                             Water quality calculation Sobek-WQ      
                                                                                     
                                                                                     
                                             T0: 1996.01.01 00:00:00  (scu=       1s)
  12.50% Completed


 DUMP OF INTERMEDIATE RESULTS IN SELECTED SEGMENTS
  TIME =   1D 18H  0M  0S .
 
 TOTAL MASS IN SYSTEM 7.2280E+09
 CHANGES BY PROCESSES-1.5379E+08
 CHANGES BY LOADS     0.0000E+00
 BOUNDARY INFLOWS     0.0000E+00
 BOUNDARY OUTFLOWS    0.0000E+00
                      C          
                                 
 CONCENTRATION                           
 Segment    1         4.1303E+05
 Segment    2         4.1303E+05
 Segment    3         4.1303E+05
 Segment    4         4.1303E+05
 Segment    5         4.1303E+05
 Segment    6         4.1303E+05
 Segment    7         4.1303E+05
 Segment    8         4.1303E+05
 
  12.80% Completed


 DUMP OF INTERMEDIATE RESULTS IN SELECTED SEGMENTS
  TIME =   1D 19H  0M  0S .
 
 TOTAL MASS IN SYSTEM 7.0774E+09
 CHANGES BY PROCESSES-1.5058E+08
 CHANGES BY LOADS     0.0000E+00
 BOUNDARY INFLOWS     0.0000E+00
 BOUNDARY OUTFLOWS    0.0000E+00
                      C          
                                 
 CONCENTRATION                           
 Segment    1         4.0442E+05
 Segment    2         4.0442E+05
 Segment    3         4.0442E+05
 Segment    4         4.0442E+05
 Segment    5         4.0442E+05
 Segment    6         4.0442E+05
 Segment    7         4.0442E+05
 Segment    8         4.0442E+05
 
1
                                             Water quality calculation Sobek-WQ      
                                                                                     
                                                                                     
                                             T0: 1996.01.01 00:00:00  (scu=       1s)
  13.10% Completed


 DUMP OF INTERMEDIATE RESULTS IN SELECTED SEGMENTS
  TIME =   1D 20H  0M  0S .
 
 TOTAL MASS IN SYSTEM 6.9299E+09
 CHANGES BY PROCESSES-1.4745E+08
 CHANGES BY LOADS     0.0000E+00
 BOUNDARY INFLOWS     0.0000E+00
 BOUNDARY OUTFLOWS    0.0000E+00
                      C          
                                 
 CONCENTRATION                           
 Segment    1         3.9600E+05
 Segment    2         3.9600E+05
 Segment    3         3.9600E+05
 Segment    4         3.9600E+05
 Segment    5         3.9600E+05
 Segment    6         3.9600E+05
 Segment    7         3.9600E+05
 Segment    8         3.9600E+05
 
  13.39% Completed


 DUMP OF INTERMEDIATE RESULTS IN SELECTED SEGMENTS
  TIME =   1D 21H  0M  0S .
 
 TOTAL MASS IN SYSTEM 6.7856E+09
 CHANGES BY PROCESSES-1.4437E+08
 CHANGES BY LOADS     0.0000E+00
 BOUNDARY INFLOWS     0.0000E+00
 BOUNDARY OUTFLOWS    0.0000E+00
                      C          
                                 
 CONCENTRATION                           
 Segment    1         3.8775E+05
 Segment    2         3.8775E+05
 Segment    3         3.8775E+05
 Segment    4         3.8775E+05
 Segment    5         3.8775E+05
 Segment    6         3.8775E+05
 Segment    7         3.8775E+05
 Segment    8         3.8775E+05
 
1
                                             Water quality calculation Sobek-WQ      
                                                                                     
                                                                                     
                                             T0: 1996.01.01 00:00:00  (scu=       1s)
  13.69% Completed


 DUMP OF INTERMEDIATE RESULTS IN SELECTED SEGMENTS
  TIME =   1D 22H  0M  0S .
 
 TOTAL MASS IN SYSTEM 6.6442E+09
 CHANGES BY PROCESSES-1.4137E+08
 CHANGES BY LOADS     0.0000E+00
 BOUNDARY INFLOWS     0.0000E+00
 BOUNDARY OUTFLOWS    0.0000E+00
                      C          
                                 
 CONCENTRATION                           
 Segment    1         3.7967E+05
 Segment    2         3.7967E+05
 Segment    3         3.7967E+05
 Segment    4         3.7967E+05
 Segment    5         3.7967E+05
 Segment    6         3.7967E+05
 Segment    7         3.7967E+05
 Segment    8         3.7967E+05
 
  13.99% Completed


 DUMP OF INTERMEDIATE RESULTS IN SELECTED SEGMENTS
  TIME =   1D 23H  0M  0S .
 
 TOTAL MASS IN SYSTEM 6.5058E+09
 CHANGES BY PROCESSES-1.3842E+08
 CHANGES BY LOADS     0.0000E+00
 BOUNDARY INFLOWS     0.0000E+00
 BOUNDARY OUTFLOWS    0.0000E+00
                      C          
                                 
 CONCENTRATION                           
 Segment    1         3.7176E+05
 Segment    2         3.7176E+05
 Segment    3         3.7176E+05
 Segment    4         3.7176E+05
 Segment    5         3.7176E+05
 Segment    6         3.7176E+05
 Segment    7         3.7176E+05
 Segment    8         3.7176E+05
 
1
                                             Water quality calculation Sobek-WQ      
                                                                                     
                                                                                     
                                             T0: 1996.01.01 00:00:00  (scu=       1s)
  14.29% Completed


 DUMP OF INTERMEDIATE RESULTS IN SELECTED SEGMENTS
  TIME =   2D  0H  0M  0S .
 
 TOTAL MASS IN SYSTEM 6.3702E+09
 CHANGES BY PROCESSES-1.3554E+08
 CHANGES BY LOADS     0.0000E+00
 BOUNDARY INFLOWS     0.0000E+00
 BOUNDARY OUTFLOWS    0.0000E+00
                      C          
                                 
 CONCENTRATION                           
 Segment    1         3.6401E+05
 Segment    2         3.6401E+05
 Segment    3         3.6401E+05
 Segment    4         3.6401E+05
 Segment    5         3.6401E+05
 Segment    6         3.6401E+05
 Segment    7         3.6401E+05
 Segment    8         3.6401E+05
 
  14.58% Completed


 DUMP OF INTERMEDIATE RESULTS IN SELECTED SEGMENTS
  TIME =   2D  1H  0M  0S .
 
 TOTAL MASS IN SYSTEM 6.2375E+09
 CHANGES BY PROCESSES-1.3271E+08
 CHANGES BY LOADS     0.0000E+00
 BOUNDARY INFLOWS     0.0000E+00
 BOUNDARY OUTFLOWS    0.0000E+00
                      C          
                                 
 CONCENTRATION                           
 Segment    1         3.5643E+05
 Segment    2         3.5643E+05
 Segment    3         3.5643E+05
 Segment    4         3.5643E+05
 Segment    5         3.5643E+05
 Segment    6         3.5643E+05
 Segment    7         3.5643E+05
 Segment    8         3.5643E+05
 
1
                                             Water quality calculation Sobek-WQ      
                                                                                     
                                                                                     
                                             T0: 1996.01.01 00:00:00  (scu=       1s)
  14.88% Completed


 DUMP OF INTERMEDIATE RESULTS IN SELECTED SEGMENTS
  TIME =   2D  2H  0M  0S .
 
 TOTAL MASS IN SYSTEM 6.1076E+09
 CHANGES BY PROCESSES-1.2995E+08
 CHANGES BY LOADS     0.0000E+00
 BOUNDARY INFLOWS     0.0000E+00
 BOUNDARY OUTFLOWS    0.0000E+00
                      C          
                                 
 CONCENTRATION                           
 Segment    1         3.4900E+05
 Segment    2         3.4900E+05
 Segment    3         3.4900E+05
 Segment    4         3.4900E+05
 Segment    5         3.4900E+05
 Segment    6         3.4900E+05
 Segment    7         3.4900E+05
 Segment    8         3.4900E+05
 
  15.18% Completed


 DUMP OF INTERMEDIATE RESULTS IN SELECTED SEGMENTS
  TIME =   2D  3H  0M  0S .
 
 TOTAL MASS IN SYSTEM 5.9803E+09
 CHANGES BY PROCESSES-1.2724E+08
 CHANGES BY LOADS     0.0000E+00
 BOUNDARY INFLOWS     0.0000E+00
 BOUNDARY OUTFLOWS    0.0000E+00
                      C          
                                 
 CONCENTRATION                           
 Segment    1         3.4173E+05
 Segment    2         3.4173E+05
 Segment    3         3.4173E+05
 Segment    4         3.4173E+05
 Segment    5         3.4173E+05
 Segment    6         3.4173E+05
 Segment    7         3.4173E+05
 Segment    8         3.4173E+05
 
1
                                             Water quality calculation Sobek-WQ      
                                                                                     
                                                                                     
                                             T0: 1996.01.01 00:00:00  (scu=       1s)
  15.48% Completed


 DUMP OF INTERMEDIATE RESULTS IN SELECTED SEGMENTS
  TIME =   2D  4H  0M  0S .
 
 TOTAL MASS IN SYSTEM 5.8558E+09
 CHANGES BY PROCESSES-1.2459E+08
 CHANGES BY LOADS     0.0000E+00
 BOUNDARY INFLOWS     0.0000E+00
 BOUNDARY OUTFLOWS    0.0000E+00
                      C          
                                 
 CONCENTRATION                           
 Segment    1         3.3461E+05
 Segment    2         3.3461E+05
 Segment    3         3.3461E+05
 Segment    4         3.3461E+05
 Segment    5         3.3461E+05
 Segment    6         3.3461E+05
 Segment    7         3.3461E+05
 Segment    8         3.3461E+05
 
  15.77% Completed


 DUMP OF INTERMEDIATE RESULTS IN SELECTED SEGMENTS
  TIME =   2D  5H  0M  0S .
 
 TOTAL MASS IN SYSTEM 5.7338E+09
 CHANGES BY PROCESSES-1.2199E+08
 CHANGES BY LOADS     0.0000E+00
 BOUNDARY INFLOWS     0.0000E+00
 BOUNDARY OUTFLOWS    0.0000E+00
                      C          
                                 
 CONCENTRATION                           
 Segment    1         3.2764E+05
 Segment    2         3.2764E+05
 Segment    3         3.2764E+05
 Segment    4         3.2764E+05
 Segment    5         3.2764E+05
 Segment    6         3.2764E+05
 Segment    7         3.2764E+05
 Segment    8         3.2764E+05
 
1
                                             Water quality calculation Sobek-WQ      
                                                                                     
                                                                                     
                                             T0: 1996.01.01 00:00:00  (scu=       1s)
  16.07% Completed


 DUMP OF INTERMEDIATE RESULTS IN SELECTED SEGMENTS
  TIME =   2D  6H  0M  0S .
 
 TOTAL MASS IN SYSTEM 5.6143E+09
 CHANGES BY PROCESSES-1.1945E+08
 CHANGES BY LOADS     0.0000E+00
 BOUNDARY INFLOWS     0.0000E+00
 BOUNDARY OUTFLOWS    0.0000E+00
                      C          
                                 
 CONCENTRATION                           
 Segment    1         3.2082E+05
 Segment    2         3.2082E+05
 Segment    3         3.2082E+05
 Segment    4         3.2082E+05
 Segment    5         3.2082E+05
 Segment    6         3.2082E+05
 Segment    7         3.2082E+05
 Segment    8         3.2082E+05
 
  16.37% Completed


 DUMP OF INTERMEDIATE RESULTS IN SELECTED SEGMENTS
  TIME =   2D  7H  0M  0S .
 
 TOTAL MASS IN SYSTEM 5.4973E+09
 CHANGES BY PROCESSES-1.1696E+08
 CHANGES BY LOADS     0.0000E+00
 BOUNDARY INFLOWS     0.0000E+00
 BOUNDARY OUTFLOWS    0.0000E+00
                      C          
                                 
 CONCENTRATION                           
 Segment    1         3.1413E+05
 Segment    2         3.1413E+05
 Segment    3         3.1413E+05
 Segment    4         3.1413E+05
 Segment    5         3.1413E+05
 Segment    6         3.1413E+05
 Segment    7         3.1413E+05
 Segment    8         3.1413E+05
 
1
                                             Water quality calculation Sobek-WQ      
                                                                                     
                                                                                     
                                             T0: 1996.01.01 00:00:00  (scu=       1s)
  16.67% Completed


 DUMP OF INTERMEDIATE RESULTS IN SELECTED SEGMENTS
  TIME =   2D  8H  0M  0S .
 
 TOTAL MASS IN SYSTEM 5.3828E+09
 CHANGES BY PROCESSES-1.1453E+08
 CHANGES BY LOADS     0.0000E+00
 BOUNDARY INFLOWS     0.0000E+00
 BOUNDARY OUTFLOWS    0.0000E+00
                      C          
                                 
 CONCENTRATION                           
 Segment    1         3.0759E+05
 Segment    2         3.0759E+05
 Segment    3         3.0759E+05
 Segment    4         3.0759E+05
 Segment    5         3.0759E+05
 Segment    6         3.0759E+05
 Segment    7         3.0759E+05
 Segment    8         3.0759E+05
 
  16.96% Completed


 DUMP OF INTERMEDIATE RESULTS IN SELECTED SEGMENTS
  TIME =   2D  9H  0M  0S .
 
 TOTAL MASS IN SYSTEM 5.2707E+09
 CHANGES BY PROCESSES-1.1214E+08
 CHANGES BY LOADS     0.0000E+00
 BOUNDARY INFLOWS     0.0000E+00
 BOUNDARY OUTFLOWS    0.0000E+00
                      C          
                                 
 CONCENTRATION                           
 Segment    1         3.0118E+05
 Segment    2         3.0118E+05
 Segment    3         3.0118E+05
 Segment    4         3.0118E+05
 Segment    5         3.0118E+05
 Segment    6         3.0118E+05
 Segment    7         3.0118E+05
 Segment    8         3.0118E+05
 
1
                                             Water quality calculation Sobek-WQ      
                                                                                     
                                                                                     
                                             T0: 1996.01.01 00:00:00  (scu=       1s)
  17.26% Completed


 DUMP OF INTERMEDIATE RESULTS IN SELECTED SEGMENTS
  TIME =   2D 10H  0M  0S .
 
 TOTAL MASS IN SYSTEM 5.1609E+09
 CHANGES BY PROCESSES-1.0981E+08
 CHANGES BY LOADS     0.0000E+00
 BOUNDARY INFLOWS     0.0000E+00
 BOUNDARY OUTFLOWS    0.0000E+00
                      C          
                                 
 CONCENTRATION                           
 Segment    1         2.9491E+05
 Segment    2         2.9491E+05
 Segment    3         2.9491E+05
 Segment    4         2.9491E+05
 Segment    5         2.9491E+05
 Segment    6         2.9491E+05
 Segment    7         2.9491E+05
 Segment    8         2.9491E+05
 
  17.56% Completed


 DUMP OF INTERMEDIATE RESULTS IN SELECTED SEGMENTS
  TIME =   2D 11H  0M  0S .
 
 TOTAL MASS IN SYSTEM 5.0534E+09
 CHANGES BY PROCESSES-1.0752E+08
 CHANGES BY LOADS     0.0000E+00
 BOUNDARY INFLOWS     0.0000E+00
 BOUNDARY OUTFLOWS    0.0000E+00
                      C          
                                 
 CONCENTRATION                           
 Segment    1         2.8876E+05
 Segment    2         2.8876E+05
 Segment    3         2.8876E+05
 Segment    4         2.8876E+05
 Segment    5         2.8876E+05
 Segment    6         2.8876E+05
 Segment    7         2.8876E+05
 Segment    8         2.8876E+05
 
1
                                             Water quality calculation Sobek-WQ      
                                                                                     
                                                                                     
                                             T0: 1996.01.01 00:00:00  (scu=       1s)
  17.86% Completed


 DUMP OF INTERMEDIATE RESULTS IN SELECTED SEGMENTS
  TIME =   2D 12H  0M  0S .
 
 TOTAL MASS IN SYSTEM 4.9481E+09
 CHANGES BY PROCESSES-1.0528E+08
 CHANGES BY LOADS     0.0000E+00
 BOUNDARY INFLOWS     0.0000E+00
 BOUNDARY OUTFLOWS    0.0000E+00
                      C          
                                 
 CONCENTRATION                           
 Segment    1         2.8275E+05
 Segment    2         2.8275E+05
 Segment    3         2.8275E+05
 Segment    4         2.8275E+05
 Segment    5         2.8275E+05
 Segment    6         2.8275E+05
 Segment    7         2.8275E+05
 Segment    8         2.8275E+05
 
  18.15% Completed


 DUMP OF INTERMEDIATE RESULTS IN SELECTED SEGMENTS
  TIME =   2D 13H  0M  0S .
 
 TOTAL MASS IN SYSTEM 4.8450E+09
 CHANGES BY PROCESSES-1.0308E+08
 CHANGES BY LOADS     0.0000E+00
 BOUNDARY INFLOWS     0.0000E+00
 BOUNDARY OUTFLOWS    0.0000E+00
                      C          
                                 
 CONCENTRATION                           
 Segment    1         2.7686E+05
 Segment    2         2.7686E+05
 Segment    3         2.7686E+05
 Segment    4         2.7686E+05
 Segment    5         2.7686E+05
 Segment    6         2.7686E+05
 Segment    7         2.7686E+05
 Segment    8         2.7686E+05
 
1
                                             Water quality calculation Sobek-WQ      
                                                                                     
                                                                                     
                                             T0: 1996.01.01 00:00:00  (scu=       1s)
  18.45% Completed


 DUMP OF INTERMEDIATE RESULTS IN SELECTED SEGMENTS
  TIME =   2D 14H  0M  0S .
 
 TOTAL MASS IN SYSTEM 4.7441E+09
 CHANGES BY PROCESSES-1.0094E+08
 CHANGES BY LOADS     0.0000E+00
 BOUNDARY INFLOWS     0.0000E+00
 BOUNDARY OUTFLOWS    0.0000E+00
                      C          
                                 
 CONCENTRATION                           
 Segment    1         2.7109E+05
 Segment    2         2.7109E+05
 Segment    3         2.7109E+05
 Segment    4         2.7109E+05
 Segment    5         2.7109E+05
 Segment    6         2.7109E+05
 Segment    7         2.7109E+05
 Segment    8         2.7109E+05
 
  18.75% Completed


 DUMP OF INTERMEDIATE RESULTS IN SELECTED SEGMENTS
  TIME =   2D 15H  0M  0S .
 
 TOTAL MASS IN SYSTEM 4.6452E+09
 CHANGES BY PROCESSES-9.8834E+07
 CHANGES BY LOADS     0.0000E+00
 BOUNDARY INFLOWS     0.0000E+00
 BOUNDARY OUTFLOWS    0.0000E+00
                      C          
                                 
 CONCENTRATION                           
 Segment    1         2.6544E+05
 Segment    2         2.6544E+05
 Segment    3         2.6544E+05
 Segment    4         2.6544E+05
 Segment    5         2.6544E+05
 Segment    6         2.6544E+05
 Segment    7         2.6544E+05
 Segment    8         2.6544E+05
 
1
                                             Water quality calculation Sobek-WQ      
                                                                                     
                                                                                     
                                             T0: 1996.01.01 00:00:00  (scu=       1s)
  19.05% Completed


 DUMP OF INTERMEDIATE RESULTS IN SELECTED SEGMENTS
  TIME =   2D 16H  0M  0S .
 
 TOTAL MASS IN SYSTEM 4.5484E+09
 CHANGES BY PROCESSES-9.6775E+07
 CHANGES BY LOADS     0.0000E+00
 BOUNDARY INFLOWS     0.0000E+00
 BOUNDARY OUTFLOWS    0.0000E+00
                      C          
                                 
 CONCENTRATION                           
 Segment    1         2.5991E+05
 Segment    2         2.5991E+05
 Segment    3         2.5991E+05
 Segment    4         2.5991E+05
 Segment    5         2.5991E+05
 Segment    6         2.5991E+05
 Segment    7         2.5991E+05
 Segment    8         2.5991E+05
 
  19.35% Completed


 DUMP OF INTERMEDIATE RESULTS IN SELECTED SEGMENTS
  TIME =   2D 17H  0M  0S .
 
 TOTAL MASS IN SYSTEM 4.4537E+09
 CHANGES BY PROCESSES-9.4759E+07
 CHANGES BY LOADS     0.0000E+00
 BOUNDARY INFLOWS     0.0000E+00
 BOUNDARY OUTFLOWS    0.0000E+00
                      C          
                                 
 CONCENTRATION                           
 Segment    1         2.5450E+05
 Segment    2         2.5450E+05
 Segment    3         2.5450E+05
 Segment    4         2.5450E+05
 Segment    5         2.5450E+05
 Segment    6         2.5450E+05
 Segment    7         2.5450E+05
 Segment    8         2.5450E+05
 
1
                                             Water quality calculation Sobek-WQ      
                                                                                     
                                                                                     
                                             T0: 1996.01.01 00:00:00  (scu=       1s)
  19.64% Completed


 DUMP OF INTERMEDIATE RESULTS IN SELECTED SEGMENTS
  TIME =   2D 18H  0M  0S .
 
 TOTAL MASS IN SYSTEM 4.3609E+09
 CHANGES BY PROCESSES-9.2785E+07
 CHANGES BY LOADS     0.0000E+00
 BOUNDARY INFLOWS     0.0000E+00
 BOUNDARY OUTFLOWS    0.0000E+00
                      C          
                                 
 CONCENTRATION                           
 Segment    1         2.4919E+05
 Segment    2         2.4919E+05
 Segment    3         2.4919E+05
 Segment    4         2.4919E+05
 Segment    5         2.4919E+05
 Segment    6         2.4919E+05
 Segment    7         2.4919E+05
 Segment    8         2.4919E+05
 
  19.94% Completed


 DUMP OF INTERMEDIATE RESULTS IN SELECTED SEGMENTS
  TIME =   2D 19H  0M  0S .
 
 TOTAL MASS IN SYSTEM 4.2700E+09
 CHANGES BY PROCESSES-9.0852E+07
 CHANGES BY LOADS     0.0000E+00
 BOUNDARY INFLOWS     0.0000E+00
 BOUNDARY OUTFLOWS    0.0000E+00
                      C          
                                 
 CONCENTRATION                           
 Segment    1         2.4400E+05
 Segment    2         2.4400E+05
 Segment    3         2.4400E+05
 Segment    4         2.4400E+05
 Segment    5         2.4400E+05
 Segment    6         2.4400E+05
 Segment    7         2.4400E+05
 Segment    8         2.4400E+05
 
1
                                             Water quality calculation Sobek-WQ      
                                                                                     
                                                                                     
                                             T0: 1996.01.01 00:00:00  (scu=       1s)
  20.24% Completed


 DUMP OF INTERMEDIATE RESULTS IN SELECTED SEGMENTS
  TIME =   2D 20H  0M  0S .
 
 TOTAL MASS IN SYSTEM 4.1811E+09
 CHANGES BY PROCESSES-8.8959E+07
 CHANGES BY LOADS     0.0000E+00
 BOUNDARY INFLOWS     0.0000E+00
 BOUNDARY OUTFLOWS    0.0000E+00
                      C          
                                 
 CONCENTRATION                           
 Segment    1         2.3892E+05
 Segment    2         2.3892E+05
 Segment    3         2.3892E+05
 Segment    4         2.3892E+05
 Segment    5         2.3892E+05
 Segment    6         2.3892E+05
 Segment    7         2.3892E+05
 Segment    8         2.3892E+05
 
  20.54% Completed


 DUMP OF INTERMEDIATE RESULTS IN SELECTED SEGMENTS
  TIME =   2D 21H  0M  0S .
 
 TOTAL MASS IN SYSTEM 4.0940E+09
 CHANGES BY PROCESSES-8.7106E+07
 CHANGES BY LOADS     0.0000E+00
 BOUNDARY INFLOWS     0.0000E+00
 BOUNDARY OUTFLOWS    0.0000E+00
                      C          
                                 
 CONCENTRATION                           
 Segment    1         2.3394E+05
 Segment    2         2.3394E+05
 Segment    3         2.3394E+05
 Segment    4         2.3394E+05
 Segment    5         2.3394E+05
 Segment    6         2.3394E+05
 Segment    7         2.3394E+05
 Segment    8         2.3394E+05
 
1
                                             Water quality calculation Sobek-WQ      
                                                                                     
                                                                                     
                                             T0: 1996.01.01 00:00:00  (scu=       1s)
  20.83% Completed


 DUMP OF INTERMEDIATE RESULTS IN SELECTED SEGMENTS
  TIME =   2D 22H  0M  0S .
 
 TOTAL MASS IN SYSTEM 4.0087E+09
 CHANGES BY PROCESSES-8.5291E+07
 CHANGES BY LOADS     0.0000E+00
 BOUNDARY INFLOWS     0.0000E+00
 BOUNDARY OUTFLOWS    0.0000E+00
                      C          
                                 
 CONCENTRATION                           
 Segment    1         2.2907E+05
 Segment    2         2.2907E+05
 Segment    3         2.2907E+05
 Segment    4         2.2907E+05
 Segment    5         2.2907E+05
 Segment    6         2.2907E+05
 Segment    7         2.2907E+05
 Segment    8         2.2907E+05
 
  21.13% Completed


 DUMP OF INTERMEDIATE RESULTS IN SELECTED SEGMENTS
  TIME =   2D 23H  0M  0S .
 
 TOTAL MASS IN SYSTEM 3.9252E+09
 CHANGES BY PROCESSES-8.3514E+07
 CHANGES BY LOADS     0.0000E+00
 BOUNDARY INFLOWS     0.0000E+00
 BOUNDARY OUTFLOWS    0.0000E+00
                      C          
                                 
 CONCENTRATION                           
 Segment    1         2.2430E+05
 Segment    2         2.2430E+05
 Segment    3         2.2430E+05
 Segment    4         2.2430E+05
 Segment    5         2.2430E+05
 Segment    6         2.2430E+05
 Segment    7         2.2430E+05
 Segment    8         2.2430E+05
 
1
                                             Water quality calculation Sobek-WQ      
                                                                                     
                                                                                     
                                             T0: 1996.01.01 00:00:00  (scu=       1s)
  21.43% Completed


 DUMP OF INTERMEDIATE RESULTS IN SELECTED SEGMENTS
  TIME =   3D  0H  0M  0S .
 
 TOTAL MASS IN SYSTEM 3.8434E+09
 CHANGES BY PROCESSES-8.1774E+07
 CHANGES BY LOADS     0.0000E+00
 BOUNDARY INFLOWS     0.0000E+00
 BOUNDARY OUTFLOWS    0.0000E+00
                      C          
                                 
 CONCENTRATION                           
 Segment    1         2.1962E+05
 Segment    2         2.1962E+05
 Segment    3         2.1962E+05
 Segment    4         2.1962E+05
 Segment    5         2.1962E+05
 Segment    6         2.1962E+05
 Segment    7         2.1962E+05
 Segment    8         2.1962E+05
 
  21.73% Completed


 DUMP OF INTERMEDIATE RESULTS IN SELECTED SEGMENTS
  TIME =   3D  1H  0M  0S .
 
 TOTAL MASS IN SYSTEM 3.7633E+09
 CHANGES BY PROCESSES-8.0071E+07
 CHANGES BY LOADS     0.0000E+00
 BOUNDARY INFLOWS     0.0000E+00
 BOUNDARY OUTFLOWS    0.0000E+00
                      C          
                                 
 CONCENTRATION                           
 Segment    1         2.1505E+05
 Segment    2         2.1505E+05
 Segment    3         2.1505E+05
 Segment    4         2.1505E+05
 Segment    5         2.1505E+05
 Segment    6         2.1505E+05
 Segment    7         2.1505E+05
 Segment    8         2.1505E+05
 
1
                                             Water quality calculation Sobek-WQ      
                                                                                     
                                                                                     
                                             T0: 1996.01.01 00:00:00  (scu=       1s)
  22.02% Completed


 DUMP OF INTERMEDIATE RESULTS IN SELECTED SEGMENTS
  TIME =   3D  2H  0M  0S .
 
 TOTAL MASS IN SYSTEM 3.6849E+09
 CHANGES BY PROCESSES-7.8403E+07
 CHANGES BY LOADS     0.0000E+00
 BOUNDARY INFLOWS     0.0000E+00
 BOUNDARY OUTFLOWS    0.0000E+00
                      C          
                                 
 CONCENTRATION                           
 Segment    1         2.1057E+05
 Segment    2         2.1057E+05
 Segment    3         2.1057E+05
 Segment    4         2.1057E+05
 Segment    5         2.1057E+05
 Segment    6         2.1057E+05
 Segment    7         2.1057E+05
 Segment    8         2.1057E+05
 
  22.32% Completed


 DUMP OF INTERMEDIATE RESULTS IN SELECTED SEGMENTS
  TIME =   3D  3H  0M  0S .
 
 TOTAL MASS IN SYSTEM 3.6082E+09
 CHANGES BY PROCESSES-7.6769E+07
 CHANGES BY LOADS     0.0000E+00
 BOUNDARY INFLOWS     0.0000E+00
 BOUNDARY OUTFLOWS    0.0000E+00
                      C          
                                 
 CONCENTRATION                           
 Segment    1         2.0618E+05
 Segment    2         2.0618E+05
 Segment    3         2.0618E+05
 Segment    4         2.0618E+05
 Segment    5         2.0618E+05
 Segment    6         2.0618E+05
 Segment    7         2.0618E+05
 Segment    8         2.0618E+05
 
1
                                             Water quality calculation Sobek-WQ      
                                                                                     
                                                                                     
                                             T0: 1996.01.01 00:00:00  (scu=       1s)
  22.62% Completed


 DUMP OF INTERMEDIATE RESULTS IN SELECTED SEGMENTS
  TIME =   3D  4H  0M  0S .
 
 TOTAL MASS IN SYSTEM 3.5330E+09
 CHANGES BY PROCESSES-7.5170E+07
 CHANGES BY LOADS     0.0000E+00
 BOUNDARY INFLOWS     0.0000E+00
 BOUNDARY OUTFLOWS    0.0000E+00
                      C          
                                 
 CONCENTRATION                           
 Segment    1         2.0189E+05
 Segment    2         2.0189E+05
 Segment    3         2.0189E+05
 Segment    4         2.0189E+05
 Segment    5         2.0189E+05
 Segment    6         2.0189E+05
 Segment    7         2.0189E+05
 Segment    8         2.0189E+05
 
  22.92% Completed


 DUMP OF INTERMEDIATE RESULTS IN SELECTED SEGMENTS
  TIME =   3D  5H  0M  0S .
 
 TOTAL MASS IN SYSTEM 3.4594E+09
 CHANGES BY PROCESSES-7.3604E+07
 CHANGES BY LOADS     0.0000E+00
 BOUNDARY INFLOWS     0.0000E+00
 BOUNDARY OUTFLOWS    0.0000E+00
                      C          
                                 
 CONCENTRATION                           
 Segment    1         1.9768E+05
 Segment    2         1.9768E+05
 Segment    3         1.9768E+05
 Segment    4         1.9768E+05
 Segment    5         1.9768E+05
 Segment    6         1.9768E+05
 Segment    7         1.9768E+05
 Segment    8         1.9768E+05
 
1
                                             Water quality calculation Sobek-WQ      
                                                                                     
                                                                                     
                                             T0: 1996.01.01 00:00:00  (scu=       1s)
  23.21% Completed


 DUMP OF INTERMEDIATE RESULTS IN SELECTED SEGMENTS
  TIME =   3D  6H  0M  0S .
 
 TOTAL MASS IN SYSTEM 3.3873E+09
 CHANGES BY PROCESSES-7.2071E+07
 CHANGES BY LOADS     0.0000E+00
 BOUNDARY INFLOWS     0.0000E+00
 BOUNDARY OUTFLOWS    0.0000E+00
                      C          
                                 
 CONCENTRATION                           
 Segment    1         1.9356E+05
 Segment    2         1.9356E+05
 Segment    3         1.9356E+05
 Segment    4         1.9356E+05
 Segment    5         1.9356E+05
 Segment    6         1.9356E+05
 Segment    7         1.9356E+05
 Segment    8         1.9356E+05
 
  23.51% Completed


 DUMP OF INTERMEDIATE RESULTS IN SELECTED SEGMENTS
  TIME =   3D  7H  0M  0S .
 
 TOTAL MASS IN SYSTEM 3.3167E+09
 CHANGES BY PROCESSES-7.0569E+07
 CHANGES BY LOADS     0.0000E+00
 BOUNDARY INFLOWS     0.0000E+00
 BOUNDARY OUTFLOWS    0.0000E+00
                      C          
                                 
 CONCENTRATION                           
 Segment    1         1.8953E+05
 Segment    2         1.8953E+05
 Segment    3         1.8953E+05
 Segment    4         1.8953E+05
 Segment    5         1.8953E+05
 Segment    6         1.8953E+05
 Segment    7         1.8953E+05
 Segment    8         1.8953E+05
 
1
                                             Water quality calculation Sobek-WQ      
                                                                                     
                                                                                     
                                             T0: 1996.01.01 00:00:00  (scu=       1s)
  23.81% Completed


 DUMP OF INTERMEDIATE RESULTS IN SELECTED SEGMENTS
  TIME =   3D  8H  0M  0S .
 
 TOTAL MASS IN SYSTEM 3.2476E+09
 CHANGES BY PROCESSES-6.9099E+07
 CHANGES BY LOADS     0.0000E+00
 BOUNDARY INFLOWS     0.0000E+00
 BOUNDARY OUTFLOWS    0.0000E+00
                      C          
                                 
 CONCENTRATION                           
 Segment    1         1.8558E+05
 Segment    2         1.8558E+05
 Segment    3         1.8558E+05
 Segment    4         1.8558E+05
 Segment    5         1.8558E+05
 Segment    6         1.8558E+05
 Segment    7         1.8558E+05
 Segment    8         1.8558E+05
 
  24.11% Completed


 DUMP OF INTERMEDIATE RESULTS IN SELECTED SEGMENTS
  TIME =   3D  9H  0M  0S .
 
 TOTAL MASS IN SYSTEM 3.1800E+09
 CHANGES BY PROCESSES-6.7659E+07
 CHANGES BY LOADS     0.0000E+00
 BOUNDARY INFLOWS     0.0000E+00
 BOUNDARY OUTFLOWS    0.0000E+00
                      C          
                                 
 CONCENTRATION                           
 Segment    1         1.8171E+05
 Segment    2         1.8171E+05
 Segment    3         1.8171E+05
 Segment    4         1.8171E+05
 Segment    5         1.8171E+05
 Segment    6         1.8171E+05
 Segment    7         1.8171E+05
 Segment    8         1.8171E+05
 
1
                                             Water quality calculation Sobek-WQ      
                                                                                     
                                                                                     
                                             T0: 1996.01.01 00:00:00  (scu=       1s)
  24.40% Completed


 DUMP OF INTERMEDIATE RESULTS IN SELECTED SEGMENTS
  TIME =   3D 10H  0M  0S .
 
 TOTAL MASS IN SYSTEM 3.1137E+09
 CHANGES BY PROCESSES-6.6250E+07
 CHANGES BY LOADS     0.0000E+00
 BOUNDARY INFLOWS     0.0000E+00
 BOUNDARY OUTFLOWS    0.0000E+00
                      C          
                                 
 CONCENTRATION                           
 Segment    1         1.7793E+05
 Segment    2         1.7793E+05
 Segment    3         1.7793E+05
 Segment    4         1.7793E+05
 Segment    5         1.7793E+05
 Segment    6         1.7793E+05
 Segment    7         1.7793E+05
 Segment    8         1.7793E+05
 
  24.70% Completed


 DUMP OF INTERMEDIATE RESULTS IN SELECTED SEGMENTS
  TIME =   3D 11H  0M  0S .
 
 TOTAL MASS IN SYSTEM 3.0489E+09
 CHANGES BY PROCESSES-6.4870E+07
 CHANGES BY LOADS     0.0000E+00
 BOUNDARY INFLOWS     0.0000E+00
 BOUNDARY OUTFLOWS    0.0000E+00
                      C          
                                 
 CONCENTRATION                           
 Segment    1         1.7422E+05
 Segment    2         1.7422E+05
 Segment    3         1.7422E+05
 Segment    4         1.7422E+05
 Segment    5         1.7422E+05
 Segment    6         1.7422E+05
 Segment    7         1.7422E+05
 Segment    8         1.7422E+05
 
1
                                             Water quality calculation Sobek-WQ      
                                                                                     
                                                                                     
                                             T0: 1996.01.01 00:00:00  (scu=       1s)
  25.00% Completed


 DUMP OF INTERMEDIATE RESULTS IN SELECTED SEGMENTS
  TIME =   3D 12H  0M  0S .
 
 TOTAL MASS IN SYSTEM 2.9854E+09
 CHANGES BY PROCESSES-6.3518E+07
 CHANGES BY LOADS     0.0000E+00
 BOUNDARY INFLOWS     0.0000E+00
 BOUNDARY OUTFLOWS    0.0000E+00
                      C          
                                 
 CONCENTRATION                           
 Segment    1         1.7059E+05
 Segment    2         1.7059E+05
 Segment    3         1.7059E+05
 Segment    4         1.7059E+05
 Segment    5         1.7059E+05
 Segment    6         1.7059E+05
 Segment    7         1.7059E+05
 Segment    8         1.7059E+05
 
  25.30% Completed


 DUMP OF INTERMEDIATE RESULTS IN SELECTED SEGMENTS
  TIME =   3D 13H  0M  0S .
 
 TOTAL MASS IN SYSTEM 2.9232E+09
 CHANGES BY PROCESSES-6.2195E+07
 CHANGES BY LOADS     0.0000E+00
 BOUNDARY INFLOWS     0.0000E+00
 BOUNDARY OUTFLOWS    0.0000E+00
                      C          
                                 
 CONCENTRATION                           
 Segment    1         1.6704E+05
 Segment    2         1.6704E+05
 Segment    3         1.6704E+05
 Segment    4         1.6704E+05
 Segment    5         1.6704E+05
 Segment    6         1.6704E+05
 Segment    7         1.6704E+05
 Segment    8         1.6704E+05
 
1
                                             Water quality calculation Sobek-WQ      
                                                                                     
                                                                                     
                                             T0: 1996.01.01 00:00:00  (scu=       1s)
  25.60% Completed


 DUMP OF INTERMEDIATE RESULTS IN SELECTED SEGMENTS
  TIME =   3D 14H  0M  0S .
 
 TOTAL MASS IN SYSTEM 2.8623E+09
 CHANGES BY PROCESSES-6.0899E+07
 CHANGES BY LOADS     0.0000E+00
 BOUNDARY INFLOWS     0.0000E+00
 BOUNDARY OUTFLOWS    0.0000E+00
                      C          
                                 
 CONCENTRATION                           
 Segment    1         1.6356E+05
 Segment    2         1.6356E+05
 Segment    3         1.6356E+05
 Segment    4         1.6356E+05
 Segment    5         1.6356E+05
 Segment    6         1.6356E+05
 Segment    7         1.6356E+05
 Segment    8         1.6356E+05
 
  25.89% Completed


 DUMP OF INTERMEDIATE RESULTS IN SELECTED SEGMENTS
  TIME =   3D 15H  0M  0S .
 
 TOTAL MASS IN SYSTEM 2.8026E+09
 CHANGES BY PROCESSES-5.9630E+07
 CHANGES BY LOADS     0.0000E+00
 BOUNDARY INFLOWS     0.0000E+00
 BOUNDARY OUTFLOWS    0.0000E+00
                      C          
                                 
 CONCENTRATION                           
 Segment    1         1.6015E+05
 Segment    2         1.6015E+05
 Segment    3         1.6015E+05
 Segment    4         1.6015E+05
 Segment    5         1.6015E+05
 Segment    6         1.6015E+05
 Segment    7         1.6015E+05
 Segment    8         1.6015E+05
 
1
                                             Water quality calculation Sobek-WQ      
                                                                                     
                                                                                     
                                             T0: 1996.01.01 00:00:00  (scu=       1s)
  26.19% Completed


 DUMP OF INTERMEDIATE RESULTS IN SELECTED SEGMENTS
  TIME =   3D 16H  0M  0S .
 
 TOTAL MASS IN SYSTEM 2.7442E+09
 CHANGES BY PROCESSES-5.8388E+07
 CHANGES BY LOADS     0.0000E+00
 BOUNDARY INFLOWS     0.0000E+00
 BOUNDARY OUTFLOWS    0.0000E+00
                      C          
                                 
 CONCENTRATION                           
 Segment    1         1.5681E+05
 Segment    2         1.5681E+05
 Segment    3         1.5681E+05
 Segment    4         1.5681E+05
 Segment    5         1.5681E+05
 Segment    6         1.5681E+05
 Segment    7         1.5681E+05
 Segment    8         1.5681E+05
 
  26.49% Completed


 DUMP OF INTERMEDIATE RESULTS IN SELECTED SEGMENTS
  TIME =   3D 17H  0M  0S .
 
 TOTAL MASS IN SYSTEM 2.6871E+09
 CHANGES BY PROCESSES-5.7172E+07
 CHANGES BY LOADS     0.0000E+00
 BOUNDARY INFLOWS     0.0000E+00
 BOUNDARY OUTFLOWS    0.0000E+00
                      C          
                                 
 CONCENTRATION                           
 Segment    1         1.5355E+05
 Segment    2         1.5355E+05
 Segment    3         1.5355E+05
 Segment    4         1.5355E+05
 Segment    5         1.5355E+05
 Segment    6         1.5355E+05
 Segment    7         1.5355E+05
 Segment    8         1.5355E+05
 
1
                                             Water quality calculation Sobek-WQ      
                                                                                     
                                                                                     
                                             T0: 1996.01.01 00:00:00  (scu=       1s)
  26.79% Completed


 DUMP OF INTERMEDIATE RESULTS IN SELECTED SEGMENTS
  TIME =   3D 18H  0M  0S .
 
 TOTAL MASS IN SYSTEM 2.6311E+09
 CHANGES BY PROCESSES-5.5981E+07
 CHANGES BY LOADS     0.0000E+00
 BOUNDARY INFLOWS     0.0000E+00
 BOUNDARY OUTFLOWS    0.0000E+00
                      C          
                                 
 CONCENTRATION                           
 Segment    1         1.5035E+05
 Segment    2         1.5035E+05
 Segment    3         1.5035E+05
 Segment    4         1.5035E+05
 Segment    5         1.5035E+05
 Segment    6         1.5035E+05
 Segment    7         1.5035E+05
 Segment    8         1.5035E+05
 
  27.08% Completed


 DUMP OF INTERMEDIATE RESULTS IN SELECTED SEGMENTS
  TIME =   3D 19H  0M  0S .
 
 TOTAL MASS IN SYSTEM 2.5763E+09
 CHANGES BY PROCESSES-5.4814E+07
 CHANGES BY LOADS     0.0000E+00
 BOUNDARY INFLOWS     0.0000E+00
 BOUNDARY OUTFLOWS    0.0000E+00
                      C          
                                 
 CONCENTRATION                           
 Segment    1         1.4722E+05
 Segment    2         1.4722E+05
 Segment    3         1.4722E+05
 Segment    4         1.4722E+05
 Segment    5         1.4722E+05
 Segment    6         1.4722E+05
 Segment    7         1.4722E+05
 Segment    8         1.4722E+05
 
1
                                             Water quality calculation Sobek-WQ      
                                                                                     
                                                                                     
                                             T0: 1996.01.01 00:00:00  (scu=       1s)
  27.38% Completed


 DUMP OF INTERMEDIATE RESULTS IN SELECTED SEGMENTS
  TIME =   3D 20H  0M  0S .
 
 TOTAL MASS IN SYSTEM 2.5226E+09
 CHANGES BY PROCESSES-5.3672E+07
 CHANGES BY LOADS     0.0000E+00
 BOUNDARY INFLOWS     0.0000E+00
 BOUNDARY OUTFLOWS    0.0000E+00
                      C          
                                 
 CONCENTRATION                           
 Segment    1         1.4415E+05
 Segment    2         1.4415E+05
 Segment    3         1.4415E+05
 Segment    4         1.4415E+05
 Segment    5         1.4415E+05
 Segment    6         1.4415E+05
 Segment    7         1.4415E+05
 Segment    8         1.4415E+05
 
  27.68% Completed


 DUMP OF INTERMEDIATE RESULTS IN SELECTED SEGMENTS
  TIME =   3D 21H  0M  0S .
 
 TOTAL MASS IN SYSTEM 2.4700E+09
 CHANGES BY PROCESSES-5.2554E+07
 CHANGES BY LOADS     0.0000E+00
 BOUNDARY INFLOWS     0.0000E+00
 BOUNDARY OUTFLOWS    0.0000E+00
                      C          
                                 
 CONCENTRATION                           
 Segment    1         1.4115E+05
 Segment    2         1.4115E+05
 Segment    3         1.4115E+05
 Segment    4         1.4115E+05
 Segment    5         1.4115E+05
 Segment    6         1.4115E+05
 Segment    7         1.4115E+05
 Segment    8         1.4115E+05
 
1
                                             Water quality calculation Sobek-WQ      
                                                                                     
                                                                                     
                                             T0: 1996.01.01 00:00:00  (scu=       1s)
  27.98% Completed


 DUMP OF INTERMEDIATE RESULTS IN SELECTED SEGMENTS
  TIME =   3D 22H  0M  0S .
 
 TOTAL MASS IN SYSTEM 2.4186E+09
 CHANGES BY PROCESSES-5.1459E+07
 CHANGES BY LOADS     0.0000E+00
 BOUNDARY INFLOWS     0.0000E+00
 BOUNDARY OUTFLOWS    0.0000E+00
                      C          
                                 
 CONCENTRATION                           
 Segment    1         1.3820E+05
 Segment    2         1.3820E+05
 Segment    3         1.3820E+05
 Segment    4         1.3820E+05
 Segment    5         1.3820E+05
 Segment    6         1.3820E+05
 Segment    7         1.3820E+05
 Segment    8         1.3820E+05
 
  28.27% Completed


 DUMP OF INTERMEDIATE RESULTS IN SELECTED SEGMENTS
[...]
                                                                                     
                                                                                     
                                             T0: 1996.01.01 00:00:00  (scu=       1s)
  94.05% Completed


 DUMP OF INTERMEDIATE RESULTS IN SELECTED SEGMENTS
  TIME =  13D  4H  0M  0S .
 
 TOTAL MASS IN SYSTEM 2.2581E+07
 CHANGES BY PROCESSES-4.8044E+05
 CHANGES BY LOADS     0.0000E+00
 BOUNDARY INFLOWS     0.0000E+00
 BOUNDARY OUTFLOWS    0.0000E+00
                      C          
                                 
 CONCENTRATION                           
 Segment    1         1.2903E+03
 Segment    2         1.2903E+03
 Segment    3         1.2903E+03
 Segment    4         1.2903E+03
 Segment    5         1.2903E+03
 Segment    6         1.2903E+03
 Segment    7         1.2903E+03
 Segment    8         1.2903E+03
 
  94.35% Completed


 DUMP OF INTERMEDIATE RESULTS IN SELECTED SEGMENTS
  TIME =  13D  5H  0M  0S .
 
 TOTAL MASS IN SYSTEM 2.2110E+07
 CHANGES BY PROCESSES-4.7043E+05
 CHANGES BY LOADS     0.0000E+00
 BOUNDARY INFLOWS     0.0000E+00
 BOUNDARY OUTFLOWS    0.0000E+00
                      C          
                                 
 CONCENTRATION                           
 Segment    1         1.2634E+03
 Segment    2         1.2634E+03
 Segment    3         1.2634E+03
 Segment    4         1.2634E+03
 Segment    5         1.2634E+03
 Segment    6         1.2634E+03
 Segment    7         1.2634E+03
 Segment    8         1.2634E+03
 
1
                                             Water quality calculation Sobek-WQ      
                                                                                     
                                                                                     
                                             T0: 1996.01.01 00:00:00  (scu=       1s)
  94.64% Completed


 DUMP OF INTERMEDIATE RESULTS IN SELECTED SEGMENTS
  TIME =  13D  6H  0M  0S .
 
 TOTAL MASS IN SYSTEM 2.1650E+07
 CHANGES BY PROCESSES-4.6063E+05
 CHANGES BY LOADS     0.0000E+00
 BOUNDARY INFLOWS     0.0000E+00
 BOUNDARY OUTFLOWS    0.0000E+00
                      C          
                                 
 CONCENTRATION                           
 Segment    1         1.2371E+03
 Segment    2         1.2371E+03
 Segment    3         1.2371E+03
 Segment    4         1.2371E+03
 Segment    5         1.2371E+03
 Segment    6         1.2371E+03
 Segment    7         1.2371E+03
 Segment    8         1.2371E+03
 
  94.94% Completed


 DUMP OF INTERMEDIATE RESULTS IN SELECTED SEGMENTS
  TIME =  13D  7H  0M  0S .
 
 TOTAL MASS IN SYSTEM 2.1198E+07
 CHANGES BY PROCESSES-4.5103E+05
 CHANGES BY LOADS     0.0000E+00
 BOUNDARY INFLOWS     0.0000E+00
 BOUNDARY OUTFLOWS    0.0000E+00
                      C          
                                 
 CONCENTRATION                           
 Segment    1         1.2113E+03
 Segment    2         1.2113E+03
 Segment    3         1.2113E+03
 Segment    4         1.2113E+03
 Segment    5         1.2113E+03
 Segment    6         1.2113E+03
 Segment    7         1.2113E+03
 Segment    8         1.2113E+03
 
1
                                             Water quality calculation Sobek-WQ      
                                                                                     
                                                                                     
                                             T0: 1996.01.01 00:00:00  (scu=       1s)
  95.24% Completed


 DUMP OF INTERMEDIATE RESULTS IN SELECTED SEGMENTS
  TIME =  13D  8H  0M  0S .
 
 TOTAL MASS IN SYSTEM 2.0757E+07
 CHANGES BY PROCESSES-4.4164E+05
 CHANGES BY LOADS     0.0000E+00
 BOUNDARY INFLOWS     0.0000E+00
 BOUNDARY OUTFLOWS    0.0000E+00
                      C          
                                 
 CONCENTRATION                           
 Segment    1         1.1861E+03
 Segment    2         1.1861E+03
 Segment    3         1.1861E+03
 Segment    4         1.1861E+03
 Segment    5         1.1861E+03
 Segment    6         1.1861E+03
 Segment    7         1.1861E+03
 Segment    8         1.1861E+03
 
  95.54% Completed


 DUMP OF INTERMEDIATE RESULTS IN SELECTED SEGMENTS
  TIME =  13D  9H  0M  0S .
 
 TOTAL MASS IN SYSTEM 2.0324E+07
 CHANGES BY PROCESSES-4.3243E+05
 CHANGES BY LOADS     0.0000E+00
 BOUNDARY INFLOWS     0.0000E+00
 BOUNDARY OUTFLOWS    0.0000E+00
                      C          
                                 
 CONCENTRATION                           
 Segment    1         1.1614E+03
 Segment    2         1.1614E+03
 Segment    3         1.1614E+03
 Segment    4         1.1614E+03
 Segment    5         1.1614E+03
 Segment    6         1.1614E+03
 Segment    7         1.1614E+03
 Segment    8         1.1614E+03
 
1
                                             Water quality calculation Sobek-WQ      
                                                                                     
                                                                                     
                                             T0: 1996.01.01 00:00:00  (scu=       1s)
  95.83% Completed


 DUMP OF INTERMEDIATE RESULTS IN SELECTED SEGMENTS
  TIME =  13D 10H  0M  0S .
 
 TOTAL MASS IN SYSTEM 1.9901E+07
 CHANGES BY PROCESSES-4.2343E+05
 CHANGES BY LOADS     0.0000E+00
 BOUNDARY INFLOWS     0.0000E+00
 BOUNDARY OUTFLOWS    0.0000E+00
                      C          
                                 
 CONCENTRATION                           
 Segment    1         1.1372E+03
 Segment    2         1.1372E+03
 Segment    3         1.1372E+03
 Segment    4         1.1372E+03
 Segment    5         1.1372E+03
 Segment    6         1.1372E+03
 Segment    7         1.1372E+03
 Segment    8         1.1372E+03
 
  96.13% Completed


 DUMP OF INTERMEDIATE RESULTS IN SELECTED SEGMENTS
  TIME =  13D 11H  0M  0S .
 
 TOTAL MASS IN SYSTEM 1.9486E+07
 CHANGES BY PROCESSES-4.1460E+05
 CHANGES BY LOADS     0.0000E+00
 BOUNDARY INFLOWS     0.0000E+00
 BOUNDARY OUTFLOWS    0.0000E+00
                      C          
                                 
 CONCENTRATION                           
 Segment    1         1.1135E+03
 Segment    2         1.1135E+03
 Segment    3         1.1135E+03
 Segment    4         1.1135E+03
 Segment    5         1.1135E+03
 Segment    6         1.1135E+03
 Segment    7         1.1135E+03
 Segment    8         1.1135E+03
 
1
                                             Water quality calculation Sobek-WQ      
                                                                                     
                                                                                     
                                             T0: 1996.01.01 00:00:00  (scu=       1s)
  96.43% Completed


 DUMP OF INTERMEDIATE RESULTS IN SELECTED SEGMENTS
  TIME =  13D 12H  0M  0S .
 
 TOTAL MASS IN SYSTEM 1.9080E+07
 CHANGES BY PROCESSES-4.0597E+05
 CHANGES BY LOADS     0.0000E+00
 BOUNDARY INFLOWS     0.0000E+00
 BOUNDARY OUTFLOWS    0.0000E+00
                      C          
                                 
 CONCENTRATION                           
 Segment    1         1.0903E+03
 Segment    2         1.0903E+03
 Segment    3         1.0903E+03
 Segment    4         1.0903E+03
 Segment    5         1.0903E+03
 Segment    6         1.0903E+03
 Segment    7         1.0903E+03
 Segment    8         1.0903E+03
 
  96.73% Completed


 DUMP OF INTERMEDIATE RESULTS IN SELECTED SEGMENTS
  TIME =  13D 13H  0M  0S .
 
 TOTAL MASS IN SYSTEM 1.8683E+07
 CHANGES BY PROCESSES-3.9751E+05
 CHANGES BY LOADS     0.0000E+00
 BOUNDARY INFLOWS     0.0000E+00
 BOUNDARY OUTFLOWS    0.0000E+00
                      C          
                                 
 CONCENTRATION                           
 Segment    1         1.0676E+03
 Segment    2         1.0676E+03
 Segment    3         1.0676E+03
 Segment    4         1.0676E+03
 Segment    5         1.0676E+03
 Segment    6         1.0676E+03
 Segment    7         1.0676E+03
 Segment    8         1.0676E+03
 
1
                                             Water quality calculation Sobek-WQ      
                                                                                     
                                                                                     
                                             T0: 1996.01.01 00:00:00  (scu=       1s)
  97.02% Completed


 DUMP OF INTERMEDIATE RESULTS IN SELECTED SEGMENTS
  TIME =  13D 14H  0M  0S .
 
 TOTAL MASS IN SYSTEM 1.8294E+07
 CHANGES BY PROCESSES-3.8923E+05
 CHANGES BY LOADS     0.0000E+00
 BOUNDARY INFLOWS     0.0000E+00
 BOUNDARY OUTFLOWS    0.0000E+00
                      C          
                                 
 CONCENTRATION                           
 Segment    1         1.0454E+03
 Segment    2         1.0454E+03
 Segment    3         1.0454E+03
 Segment    4         1.0454E+03
 Segment    5         1.0454E+03
 Segment    6         1.0454E+03
 Segment    7         1.0454E+03
 Segment    8         1.0454E+03
 
  97.32% Completed


 DUMP OF INTERMEDIATE RESULTS IN SELECTED SEGMENTS
  TIME =  13D 15H  0M  0S .
 
 TOTAL MASS IN SYSTEM 1.7913E+07
 CHANGES BY PROCESSES-3.8112E+05
 CHANGES BY LOADS     0.0000E+00
 BOUNDARY INFLOWS     0.0000E+00
 BOUNDARY OUTFLOWS    0.0000E+00
                      C          
                                 
 CONCENTRATION                           
 Segment    1         1.0236E+03
 Segment    2         1.0236E+03
 Segment    3         1.0236E+03
 Segment    4         1.0236E+03
 Segment    5         1.0236E+03
 Segment    6         1.0236E+03
 Segment    7         1.0236E+03
 Segment    8         1.0236E+03
 
1
                                             Water quality calculation Sobek-WQ      
                                                                                     
                                                                                     
                                             T0: 1996.01.01 00:00:00  (scu=       1s)
  97.62% Completed


 DUMP OF INTERMEDIATE RESULTS IN SELECTED SEGMENTS
  TIME =  13D 16H  0M  0S .
 
 TOTAL MASS IN SYSTEM 1.7539E+07
 CHANGES BY PROCESSES-3.7318E+05
 CHANGES BY LOADS     0.0000E+00
 BOUNDARY INFLOWS     0.0000E+00
 BOUNDARY OUTFLOWS    0.0000E+00
                      C          
                                 
 CONCENTRATION                           
 Segment    1         1.0023E+03
 Segment    2         1.0023E+03
 Segment    3         1.0023E+03
 Segment    4         1.0023E+03
 Segment    5         1.0023E+03
 Segment    6         1.0023E+03
 Segment    7         1.0023E+03
 Segment    8         1.0023E+03
 
  97.92% Completed


 DUMP OF INTERMEDIATE RESULTS IN SELECTED SEGMENTS
  TIME =  13D 17H  0M  0S .
 
 TOTAL MASS IN SYSTEM 1.7174E+07
 CHANGES BY PROCESSES-3.6540E+05
 CHANGES BY LOADS     0.0000E+00
 BOUNDARY INFLOWS     0.0000E+00
 BOUNDARY OUTFLOWS    0.0000E+00
                      C          
                                 
 CONCENTRATION                           
 Segment    1         9.8137E+02
 Segment    2         9.8137E+02
 Segment    3         9.8137E+02
 Segment    4         9.8137E+02
 Segment    5         9.8137E+02
 Segment    6         9.8137E+02
 Segment    7         9.8137E+02
 Segment    8         9.8137E+02
 
1
                                             Water quality calculation Sobek-WQ      
                                                                                     
                                                                                     
                                             T0: 1996.01.01 00:00:00  (scu=       1s)
  98.21% Completed


 DUMP OF INTERMEDIATE RESULTS IN SELECTED SEGMENTS
  TIME =  13D 18H  0M  0S .
 
 TOTAL MASS IN SYSTEM 1.6816E+07
 CHANGES BY PROCESSES-3.5779E+05
 CHANGES BY LOADS     0.0000E+00
 BOUNDARY INFLOWS     0.0000E+00
 BOUNDARY OUTFLOWS    0.0000E+00
                      C          
                                 
 CONCENTRATION                           
 Segment    1         9.6093E+02
 Segment    2         9.6093E+02
 Segment    3         9.6093E+02
 Segment    4         9.6093E+02
 Segment    5         9.6093E+02
 Segment    6         9.6093E+02
 Segment    7         9.6093E+02
 Segment    8         9.6093E+02
 
  98.51% Completed


 DUMP OF INTERMEDIATE RESULTS IN SELECTED SEGMENTS
  TIME =  13D 19H  0M  0S .
 
 TOTAL MASS IN SYSTEM 1.6466E+07
 CHANGES BY PROCESSES-3.5034E+05
 CHANGES BY LOADS     0.0000E+00
 BOUNDARY INFLOWS     0.0000E+00
 BOUNDARY OUTFLOWS    0.0000E+00
                      C          
                                 
 CONCENTRATION                           
 Segment    1         9.4091E+02
 Segment    2         9.4091E+02
 Segment    3         9.4091E+02
 Segment    4         9.4091E+02
 Segment    5         9.4091E+02
 Segment    6         9.4091E+02
 Segment    7         9.4091E+02
 Segment    8         9.4091E+02
 
1
                                             Water quality calculation Sobek-WQ      
                                                                                     
                                                                                     
                                             T0: 1996.01.01 00:00:00  (scu=       1s)
  98.81% Completed


 DUMP OF INTERMEDIATE RESULTS IN SELECTED SEGMENTS
  TIME =  13D 20H  0M  0S .
 
 TOTAL MASS IN SYSTEM 1.6123E+07
 CHANGES BY PROCESSES-3.4304E+05
 CHANGES BY LOADS     0.0000E+00
 BOUNDARY INFLOWS     0.0000E+00
 BOUNDARY OUTFLOWS    0.0000E+00
                      C          
                                 
 CONCENTRATION                           
 Segment    1         9.2130E+02
 Segment    2         9.2130E+02
 Segment    3         9.2130E+02
 Segment    4         9.2130E+02
 Segment    5         9.2130E+02
 Segment    6         9.2130E+02
 Segment    7         9.2130E+02
 Segment    8         9.2130E+02
 
  99.11% Completed


 DUMP OF INTERMEDIATE RESULTS IN SELECTED SEGMENTS
  TIME =  13D 21H  0M  0S .
 
 TOTAL MASS IN SYSTEM 1.5787E+07
 CHANGES BY PROCESSES-3.3589E+05
 CHANGES BY LOADS     0.0000E+00
 BOUNDARY INFLOWS     0.0000E+00
 BOUNDARY OUTFLOWS    0.0000E+00
                      C          
                                 
 CONCENTRATION                           
 Segment    1         9.0211E+02
 Segment    2         9.0211E+02
 Segment    3         9.0211E+02
 Segment    4         9.0211E+02
 Segment    5         9.0211E+02
 Segment    6         9.0211E+02
 Segment    7         9.0211E+02
 Segment    8         9.0211E+02
 
1
                                             Water quality calculation Sobek-WQ      
                                                                                     
                                                                                     
                                             T0: 1996.01.01 00:00:00  (scu=       1s)
  99.40% Completed


 DUMP OF INTERMEDIATE RESULTS IN SELECTED SEGMENTS
  TIME =  13D 22H  0M  0S .
 
 TOTAL MASS IN SYSTEM 1.5458E+07
 CHANGES BY PROCESSES-3.2889E+05
 CHANGES BY LOADS     0.0000E+00
 BOUNDARY INFLOWS     0.0000E+00
 BOUNDARY OUTFLOWS    0.0000E+00
                      C          
                                 
 CONCENTRATION                           
 Segment    1         8.8332E+02
 Segment    2         8.8332E+02
 Segment    3         8.8332E+02
 Segment    4         8.8332E+02
 Segment    5         8.8332E+02
 Segment    6         8.8332E+02
 Segment    7         8.8332E+02
 Segment    8         8.8332E+02
 
  99.70% Completed


 DUMP OF INTERMEDIATE RESULTS IN SELECTED SEGMENTS
  TIME =  13D 23H  0M  0S .
 
 TOTAL MASS IN SYSTEM 1.5136E+07
 CHANGES BY PROCESSES-3.2204E+05
 CHANGES BY LOADS     0.0000E+00
 BOUNDARY INFLOWS     0.0000E+00
 BOUNDARY OUTFLOWS    0.0000E+00
                      C          
                                 
 CONCENTRATION                           
 Segment    1         8.6491E+02
 Segment    2         8.6491E+02
 Segment    3         8.6491E+02
 Segment    4         8.6491E+02
 Segment    5         8.6491E+02
 Segment    6         8.6491E+02
 Segment    7         8.6491E+02
 Segment    8         8.6491E+02
 

 REWIND ON       UNIT:  23, READING: ..\WORK\Area.dat
 AT SIMULATION TIME:   14D  0H  0M  0S !
 TIME IN FILE:         14D  0H  0M  0S !

 REWIND ON       UNIT:  24, READING: ..\WORK\Flow.dat
 AT SIMULATION TIME:   14D  0H  0M  0S !
 TIME IN FILE:         14D  0H  0M  0S !
1
                                             Water quality calculation Sobek-WQ      
                                                                                     
                                                                                     
                                             T0: 1996.01.01 00:00:00  (scu=       1s)
 100.00% Completed


 DUMP OF INTERMEDIATE RESULTS IN SELECTED SEGMENTS
  TIME =  14D  0H  0M  0S .
 
 TOTAL MASS IN SYSTEM 1.4821E+07
 CHANGES BY PROCESSES-3.1533E+05
 CHANGES BY LOADS     0.0000E+00
 BOUNDARY INFLOWS     0.0000E+00
 BOUNDARY OUTFLOWS    0.0000E+00
                      C          
                                 
 CONCENTRATION                           
 Segment    1         8.4690E+02
 Segment    2         8.4690E+02
 Segment    3         8.4690E+02
 Segment    4         8.4690E+02
 Segment    5         8.4690E+02
 Segment    6         8.4690E+02
 Segment    7         8.4690E+02
 Segment    8         8.4690E+02
 
Performance timers:
|------------------------------------------------------------------------|
|Timer name                     |   cpu time        |    wall clock      |
|                               |-------------------|--------------------|
|                     | #times  |   sec     |  %    |    sec     |  %    |
|------------------------------------------------------------------------|
|Total                |       1 |       0.3 | 100.0 |        0.2 | 100.0 | 
|------------------------------------------------------------------------|
| *** In init, simulation:                                               |
|------------------------------------------------------------------------|
|Initialization       |       1 |       0.0 |   0.0 |        0.0 |   0.0 | 
|Integrat.routine 15  |       1 |       0.3 | 100.0 |        0.2 | 100.0 | 
|Total:               |         |       0.3 | 100.0 |        0.2 | 100.0 | 
|------------------------------------------------------------------------|
| *** In integration routine:                                            |
|------------------------------------------------------------------------|
|Proces library       |     337 |       0.0 |  11.1 |        0.1 |  30.3 | 
|Total Integration:   |         |       0.0 |  11.1 |        0.1 |  30.3 | 
|------------------------------------------------------------------------|
| *** In processes library:                                              |
|------------------------------------------------------------------------|
|Grid manipulations   |    1011 |       0.0 |   0.0 |        0.0 |   0.0 | 
|Flux manipulations   |     337 |       0.0 | 100.0 |        0.0 |  25.0 | 
|Communications       |    1011 |       0.0 |   0.0 |        0.0 |  75.0 | 
|Total Processes:     |         |       0.0 | 100.0 |        0.1 | 100.0 | 
|------------------------------------------------------------------------|
| *** In CouPLib communications library:                                 |
|------------------------------------------------------------------------|
|Index-sets           |       6 |       0.0 |   0.0 |        0.0 |   0.0 | 
|Interfaces           |       6 |       0.0 |   0.0 |        0.0 |   0.0 | 
|Total Communication: |         |       0.0 |   0.0 |        0.0 |   0.0 | 
|------------------------------------------------------------------------|
 
 Simulation ended normal
 Execution stop : 2012/04/13 11:26:53 
