1

                    Execution started at 20200108.155828



                    ---------------------------------------
                                     SWAN
                    SIMULATION OF WAVES IN NEAR SHORE AREAS
                    DELTARES VERSION NUMBER 40.72ABCDE
                    ---------------------------------------



  $***************************** HEADING *********************************

  $

  PROJECT  '                '  '    '

      '                                                                        '

      '                                                                        '

      '                                                                        '

  $

  $***************************** MODEL INPUT *****************************

  $

  SET   LEVEL =   0.00  NOR =  90.00    DEPMIN =   0.05 _
         MAXMES = 1000   MAXERR = 2 _
        GRAV =    9.81  RHO =  1025.00  INRHOG =      1 _
        NAUT

  $

  MODE NONST

  CGRID CURV   50   50          EXCEPT  0.0    0.0         _
        CIR                         36       0.03       1.00   24
 Resolution in sigma-space: df/f =  0.1573

  $

  READ COOR 1. 'TMP_grid2swan01' _
   4   0   1 FREE
 **  Heading lines  **
 -> x-coordinates
 **  Heading lines  **
 -> y-coordinates

  $

  INPGRID _
  BOTTOM CURV 0. 0.   50   50

  READINP BOTTOM 1.0   'BOTNOW' 4 0 FREE

  $

  $

  $

  $

  WIND  VEL=     10.00 DIR=      0.00

  $

  $

  $

  GEN3

  BREAK CON       1.00    0.73

  FRIC JON       0.0380

  LIM  10 1

  NUM DIR cdd=   0.50 SIGIM css=   0.50

  $

  NUM ACCUR        0.020    0.020    0.020   98.000   50

  $

  $***************************** OUTPUT REQUEST **************************

  $

  OUTPUT OPTIONS SPEC ndec=8

  QUANTITY HSIGN   excv=-999.0

  QUANTITY DIR     excv=-999.0

  QUANTITY TM01    excv=-999.0

  QUANTITY DEPTH   excv=-999.0

  QUANTITY VELOC   excv=-999.0

  QUANTITY TRANSP  excv=-999.0

  QUANTITY DSPR    excv=-999.0

  QUANTITY DISSIP  excv=-999.0

  QUANTITY LEAK    excv=-999.0

  QUANTITY QB      excv=-999.0

  QUANTITY XP      excv=-999.0

  QUANTITY YP      excv=-999.0

  QUANTITY DIST    excv=-999.0

  QUANTITY UBOT    excv=-999.0

  QUANTITY STEEPW  excv=-999.0

  QUANTITY WLENGTH excv=-999.0

  QUANTITY FORCES  excv=-999.0

  QUANTITY RTP     excv=-999.0

  QUANTITY PDIR    excv=-999.0

  QUANTITY WIND    excv=-999.0

  QUANTITY TPS     excv=-999.0

  QUANTITY TM02    excv=-999.0

  QUANTITY TMM10   excv=-999.0

  QUANTITY DHSIGN  excv=-999.0

  QUANTITY DRTM01  excv=-999.0

  QUANTITY SETUP   excv=-999.0

  QUANTITY DISSURF excv=-999.0

  QUANTITY DISWCAP excv=-999.0

  QUANTITY DISBOT  excv=-999.0

  $

  TABLE 'COMPGRID' NOHEAD 'SWANOUT1'  _
   HSIGN    DIR      TM01     DEPTH    VELOC    TRANSP _
   DSPR     DISSIP   LEAK     QB       XP       YP     _
   DIST     UBOT     STEEPW   WLENGTH  FORCES   RTP    _
   PDIR     WIND

  $

  TABLE 'COMPGRID' NOHEAD 'SWANOUT2'  _
   TPS      TM02     TMM10    DHSIGN   DRTM01   SETUP  _
   DISSURF  DISWCAP  DISBOT

  $

  $

  $

  $

  TEST  ITEST=   0  ITRACE=   0

  COMPUTE STAT   20210108.000000
 ** Warning          : relative frequency resolution (df/f) deviates more
 ** Warning          : than 5% from 10%-resolution. This may be problematic
 ** Warning          : when quadruplets are approximated by means of DIA.
  ---------------------------------------------------------------
  First guess by 2nd generation model flags for first iteration:
  ITER       1 GRWMX      0.1000E+23 ALFA       0.0000E+00
  IWIND      2 IWCAP      0 IQUAD      0
  ITRIAD     0 IBOT       1 ISURF      1
  ---------------------------------------------------------------
 iteration    1; sweep 1
 iteration    1; sweep 2
 iteration    1; sweep 3
 iteration    1; sweep 4
 accuracy OK in    NaN % of wet grid points ( 98.00 % required)

  ---------------------------------------------------------------
  Options given by user are activated for proceeding calculation:
  ITER       2 GRWMX      0.1000E+00 ALFA       0.0000E+00
  IWIND      3 IWCAP      1 IQUAD      2
  ITRIAD     0 IBOT       1 ISURF      1
  ---------------------------------------------------------------
 iteration    2; sweep 1
 iteration    2; sweep 2
 iteration    2; sweep 3
 iteration    2; sweep 4
 accuracy OK in    NaN % of wet grid points ( 98.00 % required)

 iteration    3; sweep 1
 iteration    3; sweep 2
 iteration    3; sweep 3
 iteration    3; sweep 4
 accuracy OK in    NaN % of wet grid points ( 98.00 % required)

 iteration    4; sweep 1
 iteration    4; sweep 2
 iteration    4; sweep 3
 iteration    4; sweep 4
 accuracy OK in    NaN % of wet grid points ( 98.00 % required)

 iteration    5; sweep 1
 iteration    5; sweep 2
 iteration    5; sweep 3
 iteration    5; sweep 4
 accuracy OK in    NaN % of wet grid points ( 98.00 % required)

 iteration    6; sweep 1
 iteration    6; sweep 2
 iteration    6; sweep 3
 iteration    6; sweep 4
 accuracy OK in    NaN % of wet grid points ( 98.00 % required)

 iteration    7; sweep 1
 iteration    7; sweep 2
 iteration    7; sweep 3
 iteration    7; sweep 4
 accuracy OK in    NaN % of wet grid points ( 98.00 % required)

 iteration    8; sweep 1
 iteration    8; sweep 2
 iteration    8; sweep 3
 iteration    8; sweep 4
 accuracy OK in    NaN % of wet grid points ( 98.00 % required)

 iteration    9; sweep 1
 iteration    9; sweep 2
 iteration    9; sweep 3
 iteration    9; sweep 4
 accuracy OK in    NaN % of wet grid points ( 98.00 % required)

 iteration   10; sweep 1
 iteration   10; sweep 2
 iteration   10; sweep 3
 iteration   10; sweep 4
 accuracy OK in    NaN % of wet grid points ( 98.00 % required)

 iteration   11; sweep 1
 iteration   11; sweep 2
 iteration   11; sweep 3
 iteration   11; sweep 4
 accuracy OK in    NaN % of wet grid points ( 98.00 % required)

 iteration   12; sweep 1
 iteration   12; sweep 2
 iteration   12; sweep 3
 iteration   12; sweep 4
 accuracy OK in    NaN % of wet grid points ( 98.00 % required)

 iteration   13; sweep 1
 iteration   13; sweep 2
 iteration   13; sweep 3
 iteration   13; sweep 4
 accuracy OK in    NaN % of wet grid points ( 98.00 % required)

 iteration   14; sweep 1
 iteration   14; sweep 2
 iteration   14; sweep 3
 iteration   14; sweep 4
 accuracy OK in    NaN % of wet grid points ( 98.00 % required)

 iteration   15; sweep 1
 iteration   15; sweep 2
 iteration   15; sweep 3
 iteration   15; sweep 4
 accuracy OK in    NaN % of wet grid points ( 98.00 % required)

 iteration   16; sweep 1
 iteration   16; sweep 2
 iteration   16; sweep 3
 iteration   16; sweep 4
 accuracy OK in    NaN % of wet grid points ( 98.00 % required)

 iteration   17; sweep 1
 iteration   17; sweep 2
 iteration   17; sweep 3
 iteration   17; sweep 4
 accuracy OK in    NaN % of wet grid points ( 98.00 % required)

 iteration   18; sweep 1
 iteration   18; sweep 2
 iteration   18; sweep 3
 iteration   18; sweep 4
 accuracy OK in    NaN % of wet grid points ( 98.00 % required)

 iteration   19; sweep 1
 iteration   19; sweep 2
 iteration   19; sweep 3
 iteration   19; sweep 4
 accuracy OK in    NaN % of wet grid points ( 98.00 % required)

 iteration   20; sweep 1
 iteration   20; sweep 2
 iteration   20; sweep 3
 iteration   20; sweep 4
 accuracy OK in    NaN % of wet grid points ( 98.00 % required)

 iteration   21; sweep 1
 iteration   21; sweep 2
 iteration   21; sweep 3
 iteration   21; sweep 4
 accuracy OK in    NaN % of wet grid points ( 98.00 % required)

 iteration   22; sweep 1
 iteration   22; sweep 2
 iteration   22; sweep 3
 iteration   22; sweep 4
 accuracy OK in    NaN % of wet grid points ( 98.00 % required)

 iteration   23; sweep 1
 iteration   23; sweep 2
 iteration   23; sweep 3
 iteration   23; sweep 4
 accuracy OK in    NaN % of wet grid points ( 98.00 % required)

 iteration   24; sweep 1
 iteration   24; sweep 2
 iteration   24; sweep 3
 iteration   24; sweep 4
 accuracy OK in    NaN % of wet grid points ( 98.00 % required)

 iteration   25; sweep 1
 iteration   25; sweep 2
 iteration   25; sweep 3
 iteration   25; sweep 4
 accuracy OK in    NaN % of wet grid points ( 98.00 % required)

 iteration   26; sweep 1
 iteration   26; sweep 2
 iteration   26; sweep 3
 iteration   26; sweep 4
 accuracy OK in    NaN % of wet grid points ( 98.00 % required)

 iteration   27; sweep 1
 iteration   27; sweep 2
 iteration   27; sweep 3
 iteration   27; sweep 4
 accuracy OK in    NaN % of wet grid points ( 98.00 % required)

 iteration   28; sweep 1
 iteration   28; sweep 2
 iteration   28; sweep 3
 iteration   28; sweep 4
 accuracy OK in    NaN % of wet grid points ( 98.00 % required)

 iteration   29; sweep 1
 iteration   29; sweep 2
 iteration   29; sweep 3
 iteration   29; sweep 4
 accuracy OK in    NaN % of wet grid points ( 98.00 % required)

 iteration   30; sweep 1
 iteration   30; sweep 2
 iteration   30; sweep 3
 iteration   30; sweep 4
 accuracy OK in    NaN % of wet grid points ( 98.00 % required)

 iteration   31; sweep 1
 iteration   31; sweep 2
 iteration   31; sweep 3
 iteration   31; sweep 4
 accuracy OK in    NaN % of wet grid points ( 98.00 % required)

 iteration   32; sweep 1
 iteration   32; sweep 2
 iteration   32; sweep 3
 iteration   32; sweep 4
 accuracy OK in    NaN % of wet grid points ( 98.00 % required)

 iteration   33; sweep 1
 iteration   33; sweep 2
 iteration   33; sweep 3
 iteration   33; sweep 4
 accuracy OK in    NaN % of wet grid points ( 98.00 % required)

 iteration   34; sweep 1
 iteration   34; sweep 2
 iteration   34; sweep 3
 iteration   34; sweep 4
 accuracy OK in    NaN % of wet grid points ( 98.00 % required)

 iteration   35; sweep 1
 iteration   35; sweep 2
 iteration   35; sweep 3
 iteration   35; sweep 4
 accuracy OK in    NaN % of wet grid points ( 98.00 % required)

 iteration   36; sweep 1
 iteration   36; sweep 2
 iteration   36; sweep 3
 iteration   36; sweep 4
 accuracy OK in    NaN % of wet grid points ( 98.00 % required)

 iteration   37; sweep 1
 iteration   37; sweep 2
 iteration   37; sweep 3
 iteration   37; sweep 4
 accuracy OK in    NaN % of wet grid points ( 98.00 % required)

 iteration   38; sweep 1
 iteration   38; sweep 2
 iteration   38; sweep 3
 iteration   38; sweep 4
 accuracy OK in    NaN % of wet grid points ( 98.00 % required)

 iteration   39; sweep 1
 iteration   39; sweep 2
 iteration   39; sweep 3
 iteration   39; sweep 4
 accuracy OK in    NaN % of wet grid points ( 98.00 % required)

 iteration   40; sweep 1
 iteration   40; sweep 2
 iteration   40; sweep 3
 iteration   40; sweep 4
 accuracy OK in    NaN % of wet grid points ( 98.00 % required)

 iteration   41; sweep 1
 iteration   41; sweep 2
 iteration   41; sweep 3
 iteration   41; sweep 4
 accuracy OK in    NaN % of wet grid points ( 98.00 % required)

 iteration   42; sweep 1
 iteration   42; sweep 2
 iteration   42; sweep 3
 iteration   42; sweep 4
 accuracy OK in    NaN % of wet grid points ( 98.00 % required)

 iteration   43; sweep 1
 iteration   43; sweep 2
 iteration   43; sweep 3
 iteration   43; sweep 4
 accuracy OK in    NaN % of wet grid points ( 98.00 % required)

 iteration   44; sweep 1
 iteration   44; sweep 2
 iteration   44; sweep 3
 iteration   44; sweep 4
 accuracy OK in    NaN % of wet grid points ( 98.00 % required)

 iteration   45; sweep 1
 iteration   45; sweep 2
 iteration   45; sweep 3
 iteration   45; sweep 4
 accuracy OK in    NaN % of wet grid points ( 98.00 % required)

 iteration   46; sweep 1
 iteration   46; sweep 2
 iteration   46; sweep 3
 iteration   46; sweep 4
 accuracy OK in    NaN % of wet grid points ( 98.00 % required)

 iteration   47; sweep 1
 iteration   47; sweep 2
 iteration   47; sweep 3
 iteration   47; sweep 4
 accuracy OK in    NaN % of wet grid points ( 98.00 % required)

 iteration   48; sweep 1
 iteration   48; sweep 2
 iteration   48; sweep 3
 iteration   48; sweep 4
 accuracy OK in    NaN % of wet grid points ( 98.00 % required)

 iteration   49; sweep 1
 iteration   49; sweep 2
 iteration   49; sweep 3
 iteration   49; sweep 4
 accuracy OK in    NaN % of wet grid points ( 98.00 % required)

 iteration   50; sweep 1
 iteration   50; sweep 2
 iteration   50; sweep 3
 iteration   50; sweep 4
 accuracy OK in    NaN % of wet grid points ( 98.00 % required)



  STOP
