*
* Deltares, Delft3D-QUICKIN Version 4.18.01.18383, Sep  7 2011, 14:23:24
* File creation date: 2013-10-21, 15:49:50
*
L001
      35   2
   2.3018870E+06   5.0331550E+06
   2.3032664E+06   5.0334949E+06
   2.3034263E+06   5.0328751E+06
   2.3051255E+06   5.0324753E+06
   2.3048056E+06   5.0323554E+06
   2.3045058E+06   5.0323354E+06
   2.3045857E+06   5.0319756E+06
   2.3047657E+06   5.0318556E+06
   2.3055453E+06   5.0315558E+06
   2.3052254E+06   5.0293568E+06
   2.3048656E+06   5.0271778E+06
   2.3047657E+06   5.0267380E+06
   2.3048856E+06   5.0263382E+06
   2.3043458E+06   5.0268380E+06
   2.3039460E+06   5.0266580E+06
   2.3039260E+06   5.0259584E+06
   2.3035062E+06   5.0263382E+06
   2.3037661E+06   5.0265981E+06
   2.3034663E+06   5.0266780E+06
   2.3033463E+06   5.0265181E+06
   2.3019470E+06   5.0281174E+06
   2.3017471E+06   5.0288970E+06
   2.3016471E+06   5.0292768E+06
   2.3016471E+06   5.0297966E+06
   2.3019070E+06   5.0294967E+06
   2.3023868E+06   5.0294168E+06
   2.3028665E+06   5.0294967E+06
   2.3030265E+06   5.0302564E+06
   2.3029065E+06   5.0306762E+06
   2.3028665E+06   5.0313558E+06
   2.3032264E+06   5.0315957E+06
   2.3029465E+06   5.0318156E+06
   2.3022068E+06   5.0319556E+06
   2.3019070E+06   5.0330750E+06
   2.3018870E+06   5.0331550E+06
L002
       9   2
   2.3024867E+06   5.0309161E+06
   2.3022268E+06   5.0305762E+06
   2.3023868E+06   5.0301364E+06
   2.3021669E+06   5.0298765E+06
   2.3021669E+06   5.0296366E+06
   2.3025067E+06   5.0296566E+06
   2.3026866E+06   5.0300165E+06
   2.3025867E+06   5.0308761E+06
   2.3024867E+06   5.0309161E+06
L003
      62   2
   2.3020069E+06   5.0323154E+06
   2.3021469E+06   5.0317956E+06
   2.3017071E+06   5.0314758E+06
   2.3013872E+06   5.0315757E+06
   2.3012473E+06   5.0313958E+06
   2.3011873E+06   5.0308961E+06
   2.3009074E+06   5.0307961E+06
   2.3007875E+06   5.0304563E+06
   2.3009274E+06   5.0303163E+06
   2.3010474E+06   5.0303963E+06
   2.3012473E+06   5.0302364E+06
   2.3015472E+06   5.0297966E+06
   2.3015472E+06   5.0290969E+06
   2.3016071E+06   5.0288370E+06
   2.3017071E+06   5.0283972E+06
   2.3017870E+06   5.0279774E+06
   2.3020869E+06   5.0277775E+06
   2.3033463E+06   5.0262382E+06
   2.3031664E+06   5.0262182E+06
   2.3024667E+06   5.0268579E+06
   2.3017271E+06   5.0274577E+06
   2.3014072E+06   5.0273977E+06
   2.3010274E+06   5.0273777E+06
   2.3010074E+06   5.0278575E+06
   2.3005876E+06   5.0279574E+06
   2.3005276E+06   5.0283972E+06
   2.3007675E+06   5.0282773E+06
   2.3008075E+06   5.0281174E+06
   2.3008675E+06   5.0280374E+06
   2.3010474E+06   5.0281373E+06
   2.3011673E+06   5.0282573E+06
   2.3012073E+06   5.0280974E+06
   2.3015871E+06   5.0282773E+06
   2.3012073E+06   5.0285771E+06
   2.3010874E+06   5.0286971E+06
   2.3009474E+06   5.0291769E+06
   2.3014072E+06   5.0291969E+06
   2.3014272E+06   5.0295967E+06
   2.3011873E+06   5.0294567E+06
   2.3009474E+06   5.0296766E+06
   2.3010874E+06   5.0299765E+06
   2.3009074E+06   5.0301164E+06
   2.3006876E+06   5.0299565E+06
   2.3003477E+06   5.0301364E+06
   2.3002677E+06   5.0299165E+06
   2.2996680E+06   5.0297366E+06
   2.2993282E+06   5.0298366E+06
   2.2991283E+06   5.0300165E+06
   2.2989883E+06   5.0298565E+06
   2.2989284E+06   5.0296766E+06
   2.2995481E+06   5.0289770E+06
   2.2994281E+06   5.0289170E+06
   2.2980688E+06   5.0303363E+06
   2.3002677E+06   5.0323154E+06
   2.3002478E+06   5.0326552E+06
   2.3012073E+06   5.0329551E+06
   2.3014072E+06   5.0327752E+06
   2.3015472E+06   5.0322754E+06
   2.3017271E+06   5.0319156E+06
   2.3019070E+06   5.0320955E+06
   2.3018670E+06   5.0322754E+06
   2.3020069E+06   5.0323154E+06
L004
       9   2
   2.2997880E+06   5.0283772E+06
   2.3000878E+06   5.0280574E+06
   2.2999679E+06   5.0277775E+06
   2.2993482E+06   5.0276376E+06
   2.2990883E+06   5.0279174E+06
   2.2992682E+06   5.0279974E+06
   2.2995681E+06   5.0279574E+06
   2.2996880E+06   5.0282973E+06
   2.2997880E+06   5.0283772E+06
L005
      15   2
   2.3016871E+06   5.0265581E+06
   2.3022068E+06   5.0265181E+06
   2.3025867E+06   5.0264981E+06
   2.3027666E+06   5.0261183E+06
   2.3027666E+06   5.0257385E+06
   2.3029865E+06   5.0254386E+06
   2.3025867E+06   5.0251787E+06
   2.3021469E+06   5.0255985E+06
   2.3012273E+06   5.0260383E+06
   2.3013073E+06   5.0261383E+06
   2.3019270E+06   5.0260383E+06
   2.3022868E+06   5.0262182E+06
   2.3021669E+06   5.0263382E+06
   2.3016071E+06   5.0264381E+06
   2.3016871E+06   5.0265581E+06
L006
       8   2
   2.3025126E+06   5.0249284E+06
   2.3017616E+06   5.0240701E+06
   2.3011447E+06   5.0238019E+06
   2.3011447E+06   5.0241774E+06
   2.3017885E+06   5.0243651E+06
   2.3022981E+06   5.0250088E+06
   2.3024322E+06   5.0250357E+06
   2.3025126E+06   5.0249284E+06
L007
       6   2
   2.2999914E+06   5.0233727E+06
   2.2996427E+06   5.0232654E+06
   2.2997768E+06   5.0229436E+06
   2.3000987E+06   5.0231313E+06
   2.3000182E+06   5.0234532E+06
   2.2999914E+06   5.0233727E+06
L008
      12   2
   2.3028613E+06   5.0231313E+06
   2.3020835E+06   5.0232386E+06
   2.3017616E+06   5.0221657E+06
   2.3011179E+06   5.0223535E+06
   2.3014130E+06   5.0218439E+06
   2.3016544E+06   5.0216293E+06
   2.3022176E+06   5.0217366E+06
   2.3024322E+06   5.0219780E+06
   2.3021640E+06   5.0221926E+06
   2.3023517E+06   5.0225681E+06
   2.3028613E+06   5.0230509E+06
   2.3028613E+06   5.0231313E+06
L009
      18   2
   2.3022444E+06   5.0215757E+06
   2.3021371E+06   5.0208515E+06
   2.3023517E+06   5.0203955E+06
   2.3015471E+06   5.0194031E+06
   2.3007424E+06   5.0197786E+06
   2.3002596E+06   5.0200468E+06
   2.3000719E+06   5.0198054E+06
   2.2996964E+06   5.0197518E+06
   2.2995354E+06   5.0201273E+06
   2.2999646E+06   5.0203955E+06
   2.3003937E+06   5.0206906E+06
   2.3006620E+06   5.0208247E+06
   2.3006620E+06   5.0204223E+06
   2.3013057E+06   5.0207442E+06
   2.3014398E+06   5.0213074E+06
   2.3018153E+06   5.0214684E+06
   2.3020567E+06   5.0215220E+06
   2.3022444E+06   5.0215757E+06
L010
      20   2
   2.2989722E+06   5.0225949E+06
   2.2986772E+06   5.0222194E+06
   2.2976848E+06   5.0224876E+06
   2.2975775E+06   5.0220585E+06
   2.2972824E+06   5.0220316E+06
   2.2973092E+06   5.0212270E+06
   2.2975506E+06   5.0213343E+06
   2.2974970E+06   5.0218707E+06
   2.2978993E+06   5.0217366E+06
   2.2983553E+06   5.0216293E+06
   2.2978993E+06   5.0215757E+06
   2.2979798E+06   5.0211733E+06
   2.2984626E+06   5.0212002E+06
   2.2985162E+06   5.0214952E+06
   2.2987040E+06   5.0215220E+06
   2.2990258E+06   5.0211197E+06
   2.2992940E+06   5.0212270E+06
   2.2988113E+06   5.0220853E+06
   2.2989454E+06   5.0224876E+06
   2.2989722E+06   5.0225949E+06
L011
      10   2
   2.2999109E+06   5.0191349E+06
   2.3005547E+06   5.0191885E+06
   2.3011716E+06   5.0189203E+06
   2.3012788E+06   5.0184375E+06
   2.3011716E+06   5.0180352E+06
   2.3007424E+06   5.0184375E+06
   2.3004206E+06   5.0187326E+06
   2.3002596E+06   5.0189740E+06
   2.2999378E+06   5.0189471E+06
   2.2999109E+06   5.0191349E+06
L012
      12   2
   2.3015202E+06   5.0182498E+06
   2.3013593E+06   5.0178206E+06
   2.3014130E+06   5.0173378E+06
   2.3017616E+06   5.0172842E+06
   2.3021640E+06   5.0173647E+06
   2.3025931E+06   5.0175256E+06
   2.3029150E+06   5.0177670E+06
   2.3027004E+06   5.0182766E+06
   2.3025931E+06   5.0186253E+06
   2.3017348E+06   5.0182230E+06
   2.3014934E+06   5.0183034E+06
   2.3015202E+06   5.0182498E+06
L013
      15   2
   2.3005815E+06   5.0175256E+06
   2.3010911E+06   5.0173110E+06
   2.3015471E+06   5.0171233E+06
   2.3018689E+06   5.0172037E+06
   2.3022176E+06   5.0172037E+06
   2.3024054E+06   5.0170965E+06
   2.3022712E+06   5.0167210E+06
   2.3017348E+06   5.0164527E+06
   2.3011447E+06   5.0166673E+06
   2.3006351E+06   5.0166137E+06
   2.3006351E+06   5.0168819E+06
   2.3002328E+06   5.0169892E+06
   2.3005547E+06   5.0173378E+06
   2.3005278E+06   5.0174451E+06
   2.3005815E+06   5.0175256E+06
L014
      47   2
   2.3000719E+06   5.0167746E+06
   2.3001255E+06   5.0160504E+06
   2.3004742E+06   5.0156481E+06
   2.2997232E+06   5.0158090E+06
   2.2996427E+06   5.0155140E+06
   2.2999914E+06   5.0152994E+06
   2.3005010E+06   5.0153799E+06
   2.3010375E+06   5.0151921E+06
   2.3014934E+06   5.0147898E+06
   2.3009302E+06   5.0137169E+06
   2.3005278E+06   5.0128318E+06
   2.3010643E+06   5.0110348E+06
   2.3016544E+06   5.0094523E+06
   2.3020030E+06   5.0091304E+06
   2.3016275E+06   5.0089159E+06
   2.3004474E+06   5.0087817E+06
   2.3006351E+06   5.0085404E+06
   2.3025931E+06   5.0076284E+06
   2.3026736E+06   5.0090500E+06
   2.3025126E+06   5.0098814E+06
   2.3018957E+06   5.0099887E+06
   2.3016812E+06   5.0102033E+06
   2.3020835E+06   5.0104983E+06
   2.3020299E+06   5.0107934E+06
   2.3015471E+06   5.0109811E+06
   2.3018957E+06   5.0111957E+06
   2.3024054E+06   5.0112493E+06
   2.3024590E+06   5.0117321E+06
   2.3017885E+06   5.0117858E+06
   2.3014398E+06   5.0118931E+06
   2.3010643E+06   5.0118126E+06
   2.3011447E+06   5.0122417E+06
   2.3009570E+06   5.0126172E+06
   2.3012252E+06   5.0128586E+06
   2.3011179E+06   5.0132341E+06
   2.3018153E+06   5.0136633E+06
   2.3021371E+06   5.0133146E+06
   2.3026199E+06   5.0130196E+06
   2.3024858E+06   5.0141729E+06
   2.3018421E+06   5.0144143E+06
   2.3023249E+06   5.0147362E+06
   2.3017080E+06   5.0150848E+06
   2.3018153E+06   5.0161041E+06
   2.3013325E+06   5.0159968E+06
   2.3012788E+06   5.0163186E+06
   2.3011447E+06   5.0165868E+06
   2.3000719E+06   5.0167746E+06
L015
      11   2
   2.3046047E+06   5.0101765E+06
   2.3045511E+06   5.0099083E+06
   2.3048998E+06   5.0091036E+06
   2.3050875E+06   5.0083794E+06
   2.3049802E+06   5.0076821E+06
   2.3046852E+06   5.0070920E+06
   2.3051680E+06   5.0069847E+06
   2.3054898E+06   5.0077625E+06
   2.3050607E+06   5.0092914E+06
   2.3046584E+06   5.0102301E+06
   2.3046047E+06   5.0101765E+06
L016
      35   2
   2.2965314E+06   5.0192154E+06
   2.2965046E+06   5.0189471E+06
   2.2968801E+06   5.0186521E+06
   2.2965046E+06   5.0179279E+06
   2.2965851E+06   5.0176865E+06
   2.2963973E+06   5.0174183E+06
   2.2965314E+06   5.0166405E+06
   2.2962096E+06   5.0162650E+06
   2.2965046E+06   5.0158090E+06
   2.2967996E+06   5.0158090E+06
   2.2968801E+06   5.0154335E+06
   2.2970142E+06   5.0149507E+06
   2.2976043E+06   5.0150848E+06
   2.2978725E+06   5.0155140E+06
   2.2977652E+06   5.0157822E+06
   2.2970947E+06   5.0155676E+06
   2.2969069E+06   5.0158090E+06
   2.2973092E+06   5.0161845E+06
   2.2976043E+06   5.0162918E+06
   2.2970947E+06   5.0168014E+06
   2.2966387E+06   5.0166137E+06
   2.2967996E+06   5.0169623E+06
   2.2974434E+06   5.0170428E+06
   2.2976848E+06   5.0175524E+06
   2.2974434E+06   5.0179279E+06
   2.2970142E+06   5.0177134E+06
   2.2967460E+06   5.0177402E+06
   2.2969606E+06   5.0181693E+06
   2.2968533E+06   5.0184644E+06
   2.2974702E+06   5.0186521E+06
   2.2972288E+06   5.0189471E+06
   2.2968801E+06   5.0189203E+06
   2.2967192E+06   5.0192154E+06
   2.2966387E+06   5.0192690E+06
   2.2965314E+06   5.0192154E+06
