*
* Deltares, Delft3D-QUICKIN Version 4.18.01.18383, Sep  7 2011, 14:23:24
* File creation date: 2013-10-17, 11:55:47
*
L001
      42   2
   2.3419352E+06   5.0297660E+06
   2.3371355E+06   5.0432338E+06
   2.3336253E+06   5.0410847E+06
   2.3281809E+06   5.0386490E+06
   2.3219484E+06   5.0362133E+06
   2.3194411E+06   5.0341359E+06
   2.3191193E+06   5.0336046E+06
   2.3195198E+06   5.0331596E+06
   2.3187247E+06   5.0326315E+06
   2.3172920E+06   5.0337777E+06
   2.3159309E+06   5.0337777E+06
   2.3144981E+06   5.0325598E+06
   2.3122774E+06   5.0284049E+06
   2.3104148E+06   5.0247514E+06
   2.3105912E+06   5.0240976E+06
   2.3119289E+06   5.0234478E+06
   2.3113683E+06   5.0231548E+06
   2.3110626E+06   5.0232057E+06
   2.3107695E+06   5.0233204E+06
   2.3103432E+06   5.0232470E+06
   2.3094835E+06   5.0208113E+06
   2.3082657E+06   5.0170862E+06
   2.3081224E+06   5.0149370E+06
   2.3076926E+06   5.0135043E+06
   2.3078359E+06   5.0127163E+06
   2.3090537E+06   5.0125730E+06
   2.3092678E+06   5.0124878E+06
   2.3091785E+06   5.0118922E+06
   2.3079574E+06   5.0119220E+06
   2.3076298E+06   5.0102839E+06
   2.3078085E+06   5.0088543E+06
   2.3086279E+06   5.0062335E+06
   2.3089340E+06   5.0034177E+06
   2.3076485E+06   5.0013364E+06
   2.3100358E+06   4.9998673E+06
   2.3220948E+06   4.9999285E+06
   2.3233190E+06   5.0061722E+06
   2.3244209E+06   5.0154154E+06
   2.3317664E+06   5.0234955E+06
   2.3371532E+06   5.0273519E+06
   2.3419278E+06   5.0298617E+06
   2.3419352E+06   5.0297660E+06
