* Deltares, D-Flow FM Version 1.1.81.30623, Oct 17 2013, 14:29:30
* File creation date: 15:27:15, 05-11-2013                                      
S0001
   5   2
 -5.20   -6.1
 -3.30   -6.1
 -3.30   -5.9
 -5.20   -5.9
 -5.20   -6.1