# Generated on 11/27/2013 15:41:57
# Deltares, FM-Suite DFlowFM Model Version 1.0.0.0, DFlow FM Version 1.1.83.000000

[model]
Program           = D-Flow FM
Version           = 1.1.83.000000
GuiVersion        = 1.0.0.0
AutoStart         = 0

[geometry]
NetFile           = fm_003_net.nc
BathymetryFile    =
WaterLevIniFile   =
LandBoundaryFile  = Harlingen_haven.ldb
ThinDamFile       = thindam_thd.pli
FixedWeirFile     = fixedweir_fxw.pli
StructureFile     =
ProflocFile       =
ProfdefFile       =
ManholeFile       =
WaterLevIni       = 0
Bedlevuni         = -5
Bedslope          = 0
BedlevType        = 3
PartitionFile     =
AngLat            = 0
Conveyance2D      = 3
Sillheightmin     = 0.5
Makeorthocenters  = 0
Dcenterinside     = 1
Kmx               = 0

[numerics]
CFLMax            = 0.7
CFLWaveFrac       = 0.1
AdvecType         = 3
Limtyphu          = 0
Limtypmom         = 4
Limtypsa          = 4
Icgsolver         = 1
Maxdegree         = 6
FixedWeirScheme   = 1
FixedWeirContraction= 1
Izbndpos          = 0
Jaembed1D         = 0
Slopedrop2D       = 0.3
Chkadvd           = 0.1
Teta0             = 0.55
Jbasqbnddownwindhs= 0

[physics]
UnifFrictCoef     = 0.023
UnifFrictType     = 1
Vicouv            = 0
Dicouv            = 0
Vicoww            = 0
Dicoww            = 0
Smagorinsky       = 0
Elder             = 0
irov              = 0
wall_ks           = 0
TidalForcing      = 1
Salinity          = 1
InitialSalinity   = 0

[wind]
ICdtyp            = 2
Cdbreakpoints     = 0.00063 0.00723
Windspeedbreakpoints= 0 100

[waves]
Wavemodelnr       = 0
WaveNikuradse     = 0.01
Rouwav            =

[time]
RefDate           = 20080109
Tunit             = M
TStart            = 15120
TStop             = 15130
DtUser            = 60
DtMax             = 60
DtInit            = 1
AutoTimestep      = 1

[restart]
RestartFile       =
RestartDateTime   = 20080109

[external forcing]
ExtForceFile      = 001.ext

[equatorial]
Ampfreeleft       = 0
Ampfreeright      = 0
Ampforcedzerofr   = 0.2
Nmode             = 0
Nfreq             = 1

[output]
ObsFile           = har_fine_V3_obs.xyn
CrsFile           = har_crs_V2.pli
HisInterval       = 60
XLSInterval       = 0
FlowGeomFile      =
MapInterval       = 600
MapFormat         = 1
RstInterval       = 0
S1incinterval     = 0
WaqInterval       = 0
StatsInterval     = 0
TimingsInterval   = 60

[GUIOnly]
StartTime         = 20080119
StopTime          = 20080119
