* Deltares, D-Flow FM Version 1.2.0.55872M, May 29 2018, 15:40:55
* Source: https://svn.oss.deltares.nl/repos/delft3d/branches/research/Deltares/dflowfm_development/
* File creation date: 11:59:39, 31-05-2018                                                                                                                                                                                                                     
** INFO   : Opened file : unstruc.hlp
** INFO   : Closed file : unstruc.hlp
** INFO   : Opened file : ISOCOLOUR.hls
** INFO   : Using Local FileISOCOLOUR.hls
** INFO   : Closed file : ISOCOLOUR.hls
** INFO   : Opened file : ISOCOLOUR.hls
** INFO   : Using Local FileISOCOLOUR.hls
** INFO   : Closed file : ISOCOLOUR.hls
** INFO   :  MAXIMUM NUMBER OF LINKS         :            2
** INFO   :  MAXIMUM NUMBER OF NODES         :            0
** INFO   :  RESOLUTION GRAPHICS SCREEN      :         1600         990
** INFO   :  RESOLUTION TEXT     SCREEN      :          200          66
** INFO   :  NUMBER OF COLOURS AVAILABLE     :          256
** DEBUG  :            0  0.1000020     NOD(KMAX)
** DEBUG  :            6  0.7000140     XK (KMAX), YK (KMAX), ZK (KMAX), KC (KMAX), NMK (KMAX), RNOD(KMAX)
** DEBUG  :            6  9.9999998E-03 XS(NSMAX)
** DEBUG  :            6  9.9999998E-03 YS(NSMAX)
** DEBUG  :            6  9.9999998E-03 ZS(NSMAX)
** DEBUG  :            6  9.9999998E-03 IPSAM
** DEBUG  :            7  5.0000001E-02 xlan(maxlan)
** DEBUG  :            7  5.0000001E-02 ylan(maxlan)
** DEBUG  :            7  5.0000001E-02 zlan(maxlan)
** DEBUG  :            8  2.5000000E-02 nclan(maxlan)
