*
* Comments are allowed on several places in this input file
* For example here
*
[DredgeFileInformation]
   FileCreatedBy    = WL | Delft Hydraulics, Delft3D-QUICKIN Version 4.11.00; Feb 2004
   FileCreationDate = 15:32:06, 05-03-2004
   FileVersion      = 01.02
   PolygonFile      = dredge.pol
[Dredge]
Name         = KUIL
DredgeDepth  =   0.60
Dump         = KUIL
Percentage   = 100.0
