* Deltares, D-Flow FM Version 1.2.26.60247M, Feb 09 2019, 14:39:26
* Source: https://svn.oss.deltares.nl/repos/delft3d/trunk/
* File creation date: 16:14:50, 10-10-2019
** INFO   : Opened file : unstruc.hlp
** INFO   : Closed file : unstruc.hlp
** INFO   : Opened file : ISOCOLOUR.hls
** INFO   : Using Local FileISOCOLOUR.hls
** INFO   : Closed file : ISOCOLOUR.hls
** INFO   : Opened file : ISOCOLOUR.hls
** INFO   : Using Local FileISOCOLOUR.hls
** INFO   : Closed file : ISOCOLOUR.hls
** INFO   :  MAXIMUM NUMBER OF LINKS         :            2
** INFO   :  MAXIMUM NUMBER OF NODES         :            0
** INFO   :  RESOLUTION GRAPHICS SCREEN      :         1600        1000
** INFO   :  RESOLUTION TEXT     SCREEN      :          160          50
** INFO   :  NUMBER OF COLOURS AVAILABLE     :          256
** DEBUG  :            0  0.1000020      NOD(KMAX)
** DEBUG  :            6  0.7000140      XK (KMAX), YK (KMAX), ZK (KMAX), KC (KMAX), NMK (KMAX), RNOD(KMAX)
** INFO   : Load MDU-file                    (*.mdu)
** INFO   : Opened file : flow1d.mdu
** INFO   : Closed file : flow1d.mdu
** DEBUG  :            7  0.1000020      NOD(KMAX)
** DEBUG  :           12  0.7000140      XK (KMAX), YK (KMAX), ZK (KMAX), KC (KMAX), NMK (KMAX), RNOD(KMAX)
** DEBUG  :           12  1.4400000E-03  xsp(maxspl, maxsplen)
** DEBUG  :           12  1.4400000E-03  ysp(maxspl, maxsplen)
** DEBUG  :           12  1.4400000E-03  xsp2(maxspl, maxsplen)
** DEBUG  :           12  1.4400000E-03  ysp2(maxspl, maxsplen)
 Until here copy of previous diagnostic file
** ERROR  : Wrong model definition file.    should be 'D-Flow FM'.
