Ident  = #Delft3D-FLOW 3.56.29165#
Commnt =                  
Filcco = #smallbend.grd#
Anglat =  0.0000000e+000
Grdang =  0.0000000e+000
Filgrd = #smallbend.enc#
MNKmax = 22 116 1
Thick  =  1.0000000e+002
Commnt =                  
Fildep = #smallbend.dep#
Commnt =                  
Commnt =                 no. dry points: 0
Commnt =                 no. thin dams: 0
Commnt =                  
Itdate = #2001-01-01#
Tunit  = #S#
Tstart =  0.0000000e+000
Tstop  =  600.
Dt     = 0.25
Tzone  = 0
Commnt =                  
Sub1   = #   I#
Sub2   = #   #
Commnt =                  
Wnsvwp = #N#
Wndint = #Y#
Commnt =                  
Zeta0  =  0.7000000e+000
I0     =  0.0000000e+000
Commnt =                  
Commnt =                 no. open boundaries: 2
Filbnd = #smallbend.bnd#
FilbcT = #smallbend.bct#
Commnt =                  
Ag     =  9.8100000e+000
Rhow   =  1.0000000e+003
Tempw  =  1.5000000e+001
Salw   =  3.1000000e+001
Wstres =  6.3000000e-004  0.0000000e+000  7.2300000e-003  1.0000000e+002  7.2300000e-003  1.0000000e+002
Rhoa   =  1.0000000e+000
Betac  =  0.0000000e+000
Equili = #N#
Ktemp  = 0
Fclou  =  0.0000000e+000
Sarea  =  0.0000000e+000
Temint = #Y#
Commnt =                  
Roumet = #C#
Ccofu  =  6.0000000e+001
Ccofv  =  6.0000000e+001
Xlo    =  0.0000000e+000
Vicouv =  0.0000000e+000
Dicouv =  0.0000000e+000
Htur2d = #N#
Irov   = 0
Commnt =                  
Iter   =      2
Dryflp = #YES#
Dpsopt = #DP#
Dpuopt = #MIN#
Dryflc =  1.0000000e-001
Dco    = -9.9900000e+002
Tlfsmo =  2.
ThetQH =  0.0000000e+000
Forfuv = #Y#
Forfww = #N#
Sigcor = #N#
Trasol = #Cyclic-method#
Momsol = #Cyclic#
Commnt =                  
Commnt =                 no. discharges: 0
Commnt =                 no. observation points: 5
Filsta = #smallbend.obs#
Commnt =                 no. drogues: 0
Commnt =                  
Commnt =                  
Commnt =                 no. cross sections: 0
Commnt =                  
SMhydr = #YYYYY#     
SMderv = #YYYYYY#    
SMproc = #YYYYYYYYYY#
PMhydr = #YYYYYY#    
PMderv = #YYY#       
PMproc = #YYYYYYYYYY#
SHhydr = #YYYY#      
SHderv = #YYYYY#     
SHproc = #YYYYYYYYYY#
SHflux = #YYYY#      
PHhydr = #YYYYYY#    
PHderv = #YYY#       
PHproc = #YYYYYYYYYY#
PHflux = #YYYY#      
Flmap  =  0.0000000e+000 300.  600.
Flhis  =  0.0000000e+000 300.  600.
Flpp   =  0.0000000e+000 0  0.0000000e+000
Flrst  = 0
Commnt =                  
Online = #N#
Commnt =                  
Filmor = #../shared/smallbend.mor#
Filsed = #../shared/smallbend.sed#
