Opened file : ISOCOLOUR.hls
Using Local FileISOCOLOUR.hls
Closed file : ISOCOLOUR.hls
Opened file : ISOCOLOUR.hls
Using Local FileISOCOLOUR.hls
Closed file : ISOCOLOUR.hls
* Deltares, D-Flow FM Version 1.1.61.26790M, Apr 05 2013, 18:04:20
* File creation date: 10:42:46, 17-04-2013                                      
 MAXIMUM NUMBER OF LINKS         :            2
 MAXIMUM NUMBER OF NODES         :            0
 RESOLUTION GRAPHICS SCREEN      :         1200         900
 RESOLUTION TEXT     SCREEN      :          150          60
 NUMBER OF COLOURS AVAILABLE     :          256
             0        100002 NOD(KMAX)
             6        700014 XK (KMAX), YK (KMAX), ZK (KMAX), KC (KMAX), NMK (KMAX), RNOD(KMAX)
             6         10000 XS(NSMAX),YS(NSMAX),ZS(NSMAX)
             6         50000 xlan(maxlan)
             7         50000 ylan(maxlan)
             7         50000 zlan(maxlan)
             7         25000 nclan(maxlan)
Load MDU-file                    (*.mdu)
Opened file : par16.mdu
Closed file : par16.mdu
             8        100002 NOD(KMAX)
            14        700014 XK (KMAX), YK (KMAX), ZK (KMAX), KC (KMAX), NMK (KMAX), RNOD(KMAX)
            14          1440 xsp(maxspl, maxsplen)
            14          1440 ysp(maxspl, maxsplen)
            14          1440 xsp2(maxspl, maxsplen)
            14          1440 ysp2(maxspl, maxsplen)
            14         10000 XS(NSMAX),YS(NSMAX),ZS(NSMAX)
            14         60000 xlan(maxlan)
            15         60000 ylan(maxlan)
            15         60000 zlan(maxlan)
            16         30000 nclan(maxlan)
Opened Model definition file : par16.mdu
Opened 'par16_net.nc' as #  3.
            23        960131 NOD(KMAX)
            77       6720917 XK (KMAX), YK (KMAX), ZK (KMAX), KC (KMAX), NMK (KMAX), RNOD(KMAX)
Closed NetCDF file 'par16_net.nc.
Opened file : mn_DCSMv6_02k._obs.xyn
Closed file : mn_DCSMv6_02k._obs.xyn
Opened file : dcsmv6_net.thd
Closed file : dcsmv6_net.thd
            87       1288861 netcell(numpx1)
           101       1708476 lnn(numl)
           128       3416952 lne(2,numl)
           135        849102 xz(numc)
           142        849102 yz(numc)
           149        849102 xzw(numc)
           156        849102 yzw(numc)
           162        849102 ba(numc)
 Renumber flow nodes...
 Sumdiff:   348193024  Sumdiff renum:  -1408247866
 Bandwidth:        2025  Bandwidth renum:         1887
Opened file : dcsmv6.ext
           176       1708476 xe (nx)
           190       1708476 ye (nx)
           203       1708476 xyen(2, nx)
           326      15376284 kce(nx), kez(nx), keu(nx), kes(nx), kesd(nx), ket(nx), ken(nx), keg(nx), ked(nx), kep(nx), itpez(nx), itpeu(nx)
looking for keyword: QUANTITY
looking for keyword: FILENAME
looking for keyword: FILETYPE
looking for keyword: METHOD
looking for keyword: OPERAND
Opened file : dcsmv6_01.pli
Closed file : dcsmv6_01.pli
waterlevelbnd dcsmv6_01.pli     228 nr of open bndcells
looking for keyword: QUANTITY
looking for keyword: FILENAME
looking for keyword: FILETYPE
looking for keyword: METHOD
looking for keyword: OPERAND
Opened file : dcsmv6_02.pli
Closed file : dcsmv6_02.pli
waterlevelbnd dcsmv6_02.pli    1259 nr of open bndcells
looking for keyword: QUANTITY
looking for keyword: FILENAME
looking for keyword: FILETYPE
looking for keyword: METHOD
looking for keyword: OPERAND
Opened file : dcsmv6_03.pli
Closed file : dcsmv6_03.pli
waterlevelbnd dcsmv6_03.pli     880 nr of open bndcells
looking for keyword: QUANTITY
looking for keyword: FILENAME
looking for keyword: FILETYPE
looking for keyword: METHOD
looking for keyword: OPERAND
looking for keyword: QUANTITY
looking for keyword: FILENAME
looking for keyword: FILETYPE
looking for keyword: METHOD
looking for keyword: OPERAND
looking for keyword: QUANTITY
looking for keyword: FILENAME
looking for keyword: FILETYPE
looking for keyword: METHOD
looking for keyword: OPERAND
looking for keyword: QUANTITY
looking for keyword: FILENAME
looking for keyword: FILETYPE
looking for keyword: METHOD
looking for keyword: OPERAND
looking for keyword: QUANTITY
keyword QUANTITY NOT found!
           381       6811752 nd(ndx), bl(ndx), bai(ndx), kcs(ndx), aif(ndx)
           489       3369216 ln   (2,lnx)
           516       3369216 lncn (2,lnx)
           543       3369216 bob  (2,lnx)
           557       1684608 dx   (  lnx)
           570       1684608 dxi  (  lnx)
           584       1684608 wu   (  lnx)
           597       1684608 wui  (  lnx)
           611       1684608 kcu  (  lnx)
           624       1684608 csu  (  lnx)
           638       1684608 snu  (  lnx)
           651       1684608 acl  (  lnx)
           665       1684608 acn  (2,lnx)
           678       1684608 iadv   (lnx)
           691       1684608 ibot   (lnx)
           732       5053824 xu(lnx), yu(lnx) , blu(lnx)
           746       1708476 ln2lne (nex)
           759       1708476 lne2ln (nex)
           793        859241  cn (numk)
           800        859241 ucnx(numk)
           807        859241 ucny(numk)
           814        859241 ban (numk)
           814          2368 Lbnd1D(lnxi+1:lnx)
cutcell_list; nr of *.cut files found =              0             4
           868       6738432 wcxyl(4,lnx)
           881       1702938 wcxy (2,ndx)
           908       3369216 wcL  (2,Lnx)
           915        851469 wc     (ndx)
           969       6738432 wcnxyl(4,lnx)
           990       2577723 wcnxy (3,numk)
           990         19123 cscnw(nrcnw)
           990         19123 sncnw(nrcnw)
           990         19123  kcnw(nrcnw)
cutcell_list; nr of *.cut files found =              0             5
          1019        290832 walls(17,nw)
          1033       1702938 s0  (ndx) , s1  (ndx)
          1047       1702938 a0  (ndx) , a1  (ndx)
          1060       1702938 hs  (ndx) , s00 (ndx)
          1067        851469 cfs (ndx)
          1081       1702938 ucx (ndkx) , ucy (ndkx)
          1094       1702938 uqcx(ndkx) , uqcy(ndkx)
          1108       1702938 ucxq(ndkx) , ucyq(ndkx)
          1122       1702938 qin (ndkx) , vih (ndkx)
          1135       1702938 dvxc(ndkx) , dvyc(ndkx)
          1142        851469 cfli(ndkx)
          1149        851469 squ (ndkx)
          1156        851469 sqi (ndkx)
          1162        851469 sq  (ndkx)
          1169        851469 vol0(ndkx)
          1176        851469 vol1(ndkx)
          1183        851469 volerror(ndkx)
          1190        851469 tidep (ndx)
          1203       1684608 cfu  (lnx)
          1210        851469 frcu (lnx)
          1217        851469 ifrcutp(lnx)
          1230       1684608 wsu  (lnx)
          1244       1684608 u0   (lnkx)
          1257       1684608 u1   (lnkx)
          1271       1684608 q1   (lnkx)
          1284       1684608 qa   (lnkx)
          1298       1684608 v    (lnkx)
          1311       1684608 ucxu (lnkx)
          1325       1684608 ucyu (lnkx)
          1338       1684608 hu   (lnkx)
          1352       1684608 huvli(lnkx)
          1365       1684608 au   (lnkx)
          1379       1684608 viu  (lnkx)
          1392       1684608 cflj (lnkx)
          1405       1684608 tetaj(lnkx)
          1419       1684608 suu  (lnkx)
          1432       1684608 advi (lnkx)
          1446       1684608 adve (lnkx)
          1459       1684608 rhou (lnkx)
          1473       1684608 plotlin(max(lnkx,ndkx))
          1480        851469 numlimdt(ndx)
          1487        851469 bb   (ndx )
          1493        851469 dd   (ndx )
          1500        851469 fu   (lnkx)
          1507        851469 ru   (lnkx)
          1520       1684608 teta (lnx)
          1534       1684608 fcori(lnx)
          1534         23670 xbndz(nbndz), ybndz(nbndz), xy2bndz(2,nbndz), zbndz(nbndz), kbndz(n4,nbndz), kdz(nbndz)
looking for keyword: QUANTITY
looking for keyword: FILENAME
looking for keyword: FILETYPE
looking for keyword: METHOD
looking for keyword: OPERAND
External Forcing or Initialising 'waterlevelbnd' from file 'dcsmv6_01.pli'.
Opened file : dcsmv6_01.pli
Closed file : dcsmv6_01.pli
Opened file : dcsmv6_01_0001.cmp
Opened file : dcsmv6_01_0002.cmp
Opened file : dcsmv6_01_0003.cmp
Opened file : dcsmv6_01_0004.cmp
Opened file : dcsmv6_01_0005.cmp
Opened file : dcsmv6_01_0006.cmp
Opened file : dcsmv6_01_0007.cmp
Opened file : dcsmv6_01_0008.cmp
Opened file : dcsmv6_01_0009.cmp
Opened file : dcsmv6_01_0010.cmp
Opened file : dcsmv6_01_0011.cmp
Opened file : dcsmv6_01_0012.cmp
Opened file : dcsmv6_01_0013.cmp
Opened file : dcsmv6_01_0014.cmp
Opened file : dcsmv6_01_0015.cmp
Opened file : dcsmv6_01_0016.cmp
Opened file : dcsmv6_01_0017.cmp
Opened file : dcsmv6_01_0018.cmp
Opened file : dcsmv6_01_0019.cmp
Opened file : dcsmv6_01_0020.cmp
Opened file : dcsmv6_01_0021.cmp
Opened file : dcsmv6_01_0022.cmp
Opened file : dcsmv6_01_0023.cmp
Opened file : dcsmv6_01_0024.cmp
Opened file : dcsmv6_01_0025.cmp
Opened file : dcsmv6_01_0026.cmp
Opened file : dcsmv6_01_0027.cmp
Opened file : dcsmv6_01_0028.cmp
Opened file : dcsmv6_01_0029.cmp
Opened file : dcsmv6_01_0030.cmp
Opened file : dcsmv6_01_0031.cmp
Opened file : dcsmv6_01_0032.cmp
Opened file : dcsmv6_01_0033.cmp
Opened file : dcsmv6_01_0034.cmp
Opened file : dcsmv6_01_0035.cmp
Opened file : dcsmv6_01_0036.cmp
Opened file : dcsmv6_01_0037.cmp
Opened file : dcsmv6_01_0038.cmp
Opened file : dcsmv6_01_0039.cmp
Opened file : dcsmv6_01_0040.cmp
Opened file : dcsmv6_01_0041.cmp
Opened file : dcsmv6_01_0042.cmp
Opened file : dcsmv6_01_0043.cmp
Opened file : dcsmv6_01_0044.cmp
Opened file : dcsmv6_01_0045.cmp
Opened file : dcsmv6_01_0046.cmp
looking for keyword: QUANTITY
looking for keyword: FILENAME
looking for keyword: FILETYPE
looking for keyword: METHOD
looking for keyword: OPERAND
External Forcing or Initialising 'waterlevelbnd' from file 'dcsmv6_02.pli'.
Opened file : dcsmv6_02.pli
Closed file : dcsmv6_02.pli
Opened file : dcsmv6_02_0001.cmp
Opened file : dcsmv6_02_0002.cmp
Opened file : dcsmv6_02_0003.cmp
Opened file : dcsmv6_02_0004.cmp
Opened file : dcsmv6_02_0005.cmp
Opened file : dcsmv6_02_0006.cmp
Opened file : dcsmv6_02_0007.cmp
Opened file : dcsmv6_02_0008.cmp
Opened file : dcsmv6_02_0009.cmp
Opened file : dcsmv6_02_0010.cmp
Opened file : dcsmv6_02_0011.cmp
Opened file : dcsmv6_02_0012.cmp
Opened file : dcsmv6_02_0013.cmp
Opened file : dcsmv6_02_0014.cmp
Opened file : dcsmv6_02_0015.cmp
Opened file : dcsmv6_02_0016.cmp
Opened file : dcsmv6_02_0017.cmp
Opened file : dcsmv6_02_0018.cmp
Opened file : dcsmv6_02_0019.cmp
Opened file : dcsmv6_02_0020.cmp
Opened file : dcsmv6_02_0021.cmp
Opened file : dcsmv6_02_0022.cmp
Opened file : dcsmv6_02_0023.cmp
Opened file : dcsmv6_02_0024.cmp
Opened file : dcsmv6_02_0025.cmp
Opened file : dcsmv6_02_0026.cmp
Opened file : dcsmv6_02_0027.cmp
Opened file : dcsmv6_02_0028.cmp
Opened file : dcsmv6_02_0029.cmp
Opened file : dcsmv6_02_0030.cmp
Opened file : dcsmv6_02_0031.cmp
Opened file : dcsmv6_02_0032.cmp
Opened file : dcsmv6_02_0033.cmp
Opened file : dcsmv6_02_0034.cmp
Opened file : dcsmv6_02_0035.cmp
Opened file : dcsmv6_02_0036.cmp
Opened file : dcsmv6_02_0037.cmp
Opened file : dcsmv6_02_0038.cmp
Opened file : dcsmv6_02_0039.cmp
Opened file : dcsmv6_02_0040.cmp
Opened file : dcsmv6_02_0041.cmp
Opened file : dcsmv6_02_0042.cmp
Opened file : dcsmv6_02_0043.cmp
Opened file : dcsmv6_02_0044.cmp
Opened file : dcsmv6_02_0045.cmp
Opened file : dcsmv6_02_0046.cmp
Opened file : dcsmv6_02_0047.cmp
Opened file : dcsmv6_02_0048.cmp
Opened file : dcsmv6_02_0049.cmp
Opened file : dcsmv6_02_0050.cmp
Opened file : dcsmv6_02_0051.cmp
Opened file : dcsmv6_02_0052.cmp
Opened file : dcsmv6_02_0053.cmp
Opened file : dcsmv6_02_0054.cmp
Opened file : dcsmv6_02_0055.cmp
Opened file : dcsmv6_02_0056.cmp
Opened file : dcsmv6_02_0057.cmp
Opened file : dcsmv6_02_0058.cmp
Opened file : dcsmv6_02_0059.cmp
Opened file : dcsmv6_02_0060.cmp
Opened file : dcsmv6_02_0061.cmp
Opened file : dcsmv6_02_0062.cmp
Opened file : dcsmv6_02_0063.cmp
Opened file : dcsmv6_02_0064.cmp
Opened file : dcsmv6_02_0065.cmp
Opened file : dcsmv6_02_0066.cmp
Opened file : dcsmv6_02_0067.cmp
Opened file : dcsmv6_02_0068.cmp
Opened file : dcsmv6_02_0069.cmp
Opened file : dcsmv6_02_0070.cmp
Opened file : dcsmv6_02_0071.cmp
Opened file : dcsmv6_02_0072.cmp
Opened file : dcsmv6_02_0073.cmp
Opened file : dcsmv6_02_0074.cmp
Opened file : dcsmv6_02_0075.cmp
Opened file : dcsmv6_02_0076.cmp
Opened file : dcsmv6_02_0077.cmp
Opened file : dcsmv6_02_0078.cmp
Opened file : dcsmv6_02_0079.cmp
Opened file : dcsmv6_02_0080.cmp
Opened file : dcsmv6_02_0081.cmp
Opened file : dcsmv6_02_0082.cmp
Opened file : dcsmv6_02_0083.cmp
Opened file : dcsmv6_02_0084.cmp
Opened file : dcsmv6_02_0085.cmp
Opened file : dcsmv6_02_0086.cmp
Opened file : dcsmv6_02_0087.cmp
Opened file : dcsmv6_02_0088.cmp
Opened file : dcsmv6_02_0089.cmp
Opened file : dcsmv6_02_0090.cmp
Opened file : dcsmv6_02_0091.cmp
Opened file : dcsmv6_02_0092.cmp
Opened file : dcsmv6_02_0093.cmp
Opened file : dcsmv6_02_0094.cmp
Opened file : dcsmv6_02_0095.cmp
Opened file : dcsmv6_02_0096.cmp
Opened file : dcsmv6_02_0097.cmp
Opened file : dcsmv6_02_0098.cmp
Opened file : dcsmv6_02_0099.cmp
Opened file : dcsmv6_02_0100.cmp
Opened file : dcsmv6_02_0101.cmp
Opened file : dcsmv6_02_0102.cmp
Opened file : dcsmv6_02_0103.cmp
Opened file : dcsmv6_02_0104.cmp
Opened file : dcsmv6_02_0105.cmp
Opened file : dcsmv6_02_0106.cmp
Opened file : dcsmv6_02_0107.cmp
Opened file : dcsmv6_02_0108.cmp
Opened file : dcsmv6_02_0109.cmp
Opened file : dcsmv6_02_0110.cmp
Opened file : dcsmv6_02_0111.cmp
Opened file : dcsmv6_02_0112.cmp
Opened file : dcsmv6_02_0113.cmp
Opened file : dcsmv6_02_0114.cmp
Opened file : dcsmv6_02_0115.cmp
Opened file : dcsmv6_02_0116.cmp
Opened file : dcsmv6_02_0117.cmp
Opened file : dcsmv6_02_0118.cmp
Opened file : dcsmv6_02_0119.cmp
Opened file : dcsmv6_02_0120.cmp
Opened file : dcsmv6_02_0121.cmp
Opened file : dcsmv6_02_0122.cmp
Opened file : dcsmv6_02_0123.cmp
Opened file : dcsmv6_02_0124.cmp
Opened file : dcsmv6_02_0125.cmp
Opened file : dcsmv6_02_0126.cmp
Opened file : dcsmv6_02_0127.cmp
Opened file : dcsmv6_02_0128.cmp
Opened file : dcsmv6_02_0129.cmp
Opened file : dcsmv6_02_0130.cmp
Opened file : dcsmv6_02_0131.cmp
Opened file : dcsmv6_02_0132.cmp
Opened file : dcsmv6_02_0133.cmp
Opened file : dcsmv6_02_0134.cmp
Opened file : dcsmv6_02_0135.cmp
Opened file : dcsmv6_02_0136.cmp
Opened file : dcsmv6_02_0137.cmp
Opened file : dcsmv6_02_0138.cmp
Opened file : dcsmv6_02_0139.cmp
Opened file : dcsmv6_02_0140.cmp
Opened file : dcsmv6_02_0141.cmp
Opened file : dcsmv6_02_0142.cmp
Opened file : dcsmv6_02_0143.cmp
Opened file : dcsmv6_02_0144.cmp
Opened file : dcsmv6_02_0145.cmp
Opened file : dcsmv6_02_0146.cmp
Opened file : dcsmv6_02_0147.cmp
Opened file : dcsmv6_02_0148.cmp
Opened file : dcsmv6_02_0149.cmp
Opened file : dcsmv6_02_0150.cmp
Opened file : dcsmv6_02_0151.cmp
Opened file : dcsmv6_02_0152.cmp
Opened file : dcsmv6_02_0153.cmp
Opened file : dcsmv6_02_0154.cmp
Opened file : dcsmv6_02_0155.cmp
Opened file : dcsmv6_02_0156.cmp
Opened file : dcsmv6_02_0157.cmp
Opened file : dcsmv6_02_0158.cmp
Opened file : dcsmv6_02_0159.cmp
Opened file : dcsmv6_02_0160.cmp
Opened file : dcsmv6_02_0161.cmp
Opened file : dcsmv6_02_0162.cmp
Opened file : dcsmv6_02_0163.cmp
Opened file : dcsmv6_02_0164.cmp
Opened file : dcsmv6_02_0165.cmp
Opened file : dcsmv6_02_0166.cmp
Opened file : dcsmv6_02_0167.cmp
Opened file : dcsmv6_02_0168.cmp
looking for keyword: QUANTITY
looking for keyword: FILENAME
looking for keyword: FILETYPE
looking for keyword: METHOD
looking for keyword: OPERAND
External Forcing or Initialising 'waterlevelbnd' from file 'dcsmv6_03.pli'.
Opened file : dcsmv6_03.pli
Closed file : dcsmv6_03.pli
Opened file : dcsmv6_03_0001.cmp
Opened file : dcsmv6_03_0002.cmp
Opened file : dcsmv6_03_0003.cmp
Opened file : dcsmv6_03_0004.cmp
Opened file : dcsmv6_03_0005.cmp
Opened file : dcsmv6_03_0006.cmp
Opened file : dcsmv6_03_0007.cmp
Opened file : dcsmv6_03_0008.cmp
Opened file : dcsmv6_03_0009.cmp
Opened file : dcsmv6_03_0010.cmp
Opened file : dcsmv6_03_0011.cmp
Opened file : dcsmv6_03_0012.cmp
Opened file : dcsmv6_03_0013.cmp
Opened file : dcsmv6_03_0014.cmp
Opened file : dcsmv6_03_0015.cmp
Opened file : dcsmv6_03_0016.cmp
Opened file : dcsmv6_03_0017.cmp
Opened file : dcsmv6_03_0018.cmp
Opened file : dcsmv6_03_0019.cmp
Opened file : dcsmv6_03_0020.cmp
Opened file : dcsmv6_03_0021.cmp
Opened file : dcsmv6_03_0022.cmp
Opened file : dcsmv6_03_0023.cmp
Opened file : dcsmv6_03_0024.cmp
Opened file : dcsmv6_03_0025.cmp
Opened file : dcsmv6_03_0026.cmp
Opened file : dcsmv6_03_0027.cmp
Opened file : dcsmv6_03_0028.cmp
Opened file : dcsmv6_03_0029.cmp
Opened file : dcsmv6_03_0030.cmp
Opened file : dcsmv6_03_0031.cmp
Opened file : dcsmv6_03_0032.cmp
Opened file : dcsmv6_03_0033.cmp
Opened file : dcsmv6_03_0034.cmp
Opened file : dcsmv6_03_0035.cmp
Opened file : dcsmv6_03_0036.cmp
Opened file : dcsmv6_03_0037.cmp
Opened file : dcsmv6_03_0038.cmp
Opened file : dcsmv6_03_0039.cmp
Opened file : dcsmv6_03_0040.cmp
Opened file : dcsmv6_03_0041.cmp
Opened file : dcsmv6_03_0042.cmp
Opened file : dcsmv6_03_0043.cmp
Opened file : dcsmv6_03_0044.cmp
Opened file : dcsmv6_03_0045.cmp
Opened file : dcsmv6_03_0046.cmp
Opened file : dcsmv6_03_0047.cmp
Opened file : dcsmv6_03_0048.cmp
Opened file : dcsmv6_03_0049.cmp
Opened file : dcsmv6_03_0050.cmp
Opened file : dcsmv6_03_0051.cmp
Opened file : dcsmv6_03_0052.cmp
Opened file : dcsmv6_03_0053.cmp
Opened file : dcsmv6_03_0054.cmp
Opened file : dcsmv6_03_0055.cmp
Opened file : dcsmv6_03_0056.cmp
Opened file : dcsmv6_03_0057.cmp
Opened file : dcsmv6_03_0058.cmp
Opened file : dcsmv6_03_0059.cmp
Opened file : dcsmv6_03_0060.cmp
Opened file : dcsmv6_03_0061.cmp
Opened file : dcsmv6_03_0062.cmp
Opened file : dcsmv6_03_0063.cmp
Opened file : dcsmv6_03_0064.cmp
Opened file : dcsmv6_03_0065.cmp
Opened file : dcsmv6_03_0066.cmp
Opened file : dcsmv6_03_0067.cmp
Opened file : dcsmv6_03_0068.cmp
Opened file : dcsmv6_03_0069.cmp
Opened file : dcsmv6_03_0070.cmp
Opened file : dcsmv6_03_0071.cmp
Opened file : dcsmv6_03_0072.cmp
Opened file : dcsmv6_03_0073.cmp
Opened file : dcsmv6_03_0074.cmp
Opened file : dcsmv6_03_0075.cmp
Opened file : dcsmv6_03_0076.cmp
Opened file : dcsmv6_03_0077.cmp
Opened file : dcsmv6_03_0078.cmp
Opened file : dcsmv6_03_0079.cmp
Opened file : dcsmv6_03_0080.cmp
Opened file : dcsmv6_03_0081.cmp
Opened file : dcsmv6_03_0082.cmp
Opened file : dcsmv6_03_0083.cmp
Opened file : dcsmv6_03_0084.cmp
Opened file : dcsmv6_03_0085.cmp
Opened file : dcsmv6_03_0086.cmp
Opened file : dcsmv6_03_0087.cmp
Opened file : dcsmv6_03_0088.cmp
Opened file : dcsmv6_03_0089.cmp
Opened file : dcsmv6_03_0090.cmp
Opened file : dcsmv6_03_0091.cmp
Opened file : dcsmv6_03_0092.cmp
Opened file : dcsmv6_03_0093.cmp
Opened file : dcsmv6_03_0094.cmp
Opened file : dcsmv6_03_0095.cmp
Opened file : dcsmv6_03_0096.cmp
Opened file : dcsmv6_03_0097.cmp
Opened file : dcsmv6_03_0098.cmp
Opened file : dcsmv6_03_0099.cmp
Opened file : dcsmv6_03_0100.cmp
Opened file : dcsmv6_03_0101.cmp
Opened file : dcsmv6_03_0102.cmp
Opened file : dcsmv6_03_0103.cmp
Opened file : dcsmv6_03_0104.cmp
Opened file : dcsmv6_03_0105.cmp
Opened file : dcsmv6_03_0106.cmp
Opened file : dcsmv6_03_0107.cmp
Opened file : dcsmv6_03_0108.cmp
Opened file : dcsmv6_03_0109.cmp
Opened file : dcsmv6_03_0110.cmp
Opened file : dcsmv6_03_0111.cmp
Opened file : dcsmv6_03_0112.cmp
Opened file : dcsmv6_03_0113.cmp
Opened file : dcsmv6_03_0114.cmp
Opened file : dcsmv6_03_0115.cmp
Opened file : dcsmv6_03_0116.cmp
Opened file : dcsmv6_03_0117.cmp
Opened file : dcsmv6_03_0118.cmp
Opened file : dcsmv6_03_0119.cmp
Opened file : dcsmv6_03_0120.cmp
Opened file : dcsmv6_03_0121.cmp
Opened file : dcsmv6_03_0122.cmp
Opened file : dcsmv6_03_0123.cmp
Opened file : dcsmv6_03_0124.cmp
Opened file : dcsmv6_03_0125.cmp
Opened file : dcsmv6_03_0126.cmp
Opened file : dcsmv6_03_0127.cmp
Opened file : dcsmv6_03_0128.cmp
Opened file : dcsmv6_03_0129.cmp
Opened file : dcsmv6_03_0130.cmp
Opened file : dcsmv6_03_0131.cmp
Opened file : dcsmv6_03_0132.cmp
Opened file : dcsmv6_03_0133.cmp
Opened file : dcsmv6_03_0134.cmp
Opened file : dcsmv6_03_0135.cmp
Opened file : dcsmv6_03_0136.cmp
Opened file : dcsmv6_03_0137.cmp
Opened file : dcsmv6_03_0138.cmp
Opened file : dcsmv6_03_0139.cmp
Opened file : dcsmv6_03_0140.cmp
Opened file : dcsmv6_03_0141.cmp
Opened file : dcsmv6_03_0142.cmp
Opened file : dcsmv6_03_0143.cmp
Opened file : dcsmv6_03_0144.cmp
Opened file : dcsmv6_03_0145.cmp
Opened file : dcsmv6_03_0146.cmp
Opened file : dcsmv6_03_0147.cmp
Opened file : dcsmv6_03_0148.cmp
Opened file : dcsmv6_03_0149.cmp
Opened file : dcsmv6_03_0150.cmp
Opened file : dcsmv6_03_0151.cmp
Opened file : dcsmv6_03_0152.cmp
Opened file : dcsmv6_03_0153.cmp
Opened file : dcsmv6_03_0154.cmp
Opened file : dcsmv6_03_0155.cmp
Opened file : dcsmv6_03_0156.cmp
Opened file : dcsmv6_03_0157.cmp
Opened file : dcsmv6_03_0158.cmp
Opened file : dcsmv6_03_0159.cmp
Opened file : dcsmv6_03_0160.cmp
Opened file : dcsmv6_03_0161.cmp
Opened file : dcsmv6_03_0162.cmp
Opened file : dcsmv6_03_0163.cmp
Opened file : dcsmv6_03_0164.cmp
Opened file : dcsmv6_03_0165.cmp
Opened file : dcsmv6_03_0166.cmp
Opened file : dcsmv6_03_0167.cmp
Opened file : dcsmv6_03_0168.cmp
Opened file : dcsmv6_03_0169.cmp
Opened file : dcsmv6_03_0170.cmp
Opened file : dcsmv6_03_0171.cmp
Opened file : dcsmv6_03_0172.cmp
Opened file : dcsmv6_03_0173.cmp
Opened file : dcsmv6_03_0174.cmp
Opened file : dcsmv6_03_0175.cmp
Opened file : dcsmv6_03_0176.cmp
Opened file : dcsmv6_03_0177.cmp
Opened file : dcsmv6_03_0178.cmp
Opened file : dcsmv6_03_0179.cmp
Opened file : dcsmv6_03_0180.cmp
Opened file : dcsmv6_03_0181.cmp
Opened file : dcsmv6_03_0182.cmp
Opened file : dcsmv6_03_0183.cmp
Opened file : dcsmv6_03_0184.cmp
Opened file : dcsmv6_03_0185.cmp
Opened file : dcsmv6_03_0186.cmp
Opened file : dcsmv6_03_0187.cmp
Opened file : dcsmv6_03_0188.cmp
Opened file : dcsmv6_03_0189.cmp
Opened file : dcsmv6_03_0190.cmp
Opened file : dcsmv6_03_0191.cmp
Opened file : dcsmv6_03_0192.cmp
Opened file : dcsmv6_03_0193.cmp
Opened file : dcsmv6_03_0194.cmp
Opened file : dcsmv6_03_0195.cmp
Opened file : dcsmv6_03_0196.cmp
looking for keyword: QUANTITY
looking for keyword: FILENAME
looking for keyword: FILETYPE
looking for keyword: METHOD
looking for keyword: OPERAND
External Forcing or Initialising 'windx' from file 'meteo.amu'.
          1575       5053824 wx(lnx), wy(lnx), kcw(lnx)
Opened file : meteo.amu
looking for keyword: QUANTITY
looking for keyword: FILENAME
looking for keyword: FILETYPE
looking for keyword: METHOD
looking for keyword: OPERAND
External Forcing or Initialising 'windy' from file 'meteo.amv'.
Opened file : meteo.amv
looking for keyword: QUANTITY
looking for keyword: FILENAME
looking for keyword: FILETYPE
looking for keyword: METHOD
looking for keyword: OPERAND
External Forcing or Initialising 'frictioncoefficient' from file 'rgh_test43c_work198_lim.xyz'.
          1588       1684608 viuh(lnx)
          1601       1684608 zh(nx)
Opened file : rgh_test43c_work198_lim.xyz
          1610       1031089 XS(NSMAX),YS(NSMAX),ZS(NSMAX)
Closed file : rgh_test43c_work198_lim.xyz
          1733      15466368 INDX(3,NSM)
Opened file : DFM_interpreted_initial_values_rgh_test43c_work198_lim.xyz.xyz
Closed file : DFM_interpreted_initial_values_rgh_test43c_work198_lim.xyz.xyz
looking for keyword: QUANTITY
looking for keyword: FILENAME
looking for keyword: FILETYPE
looking for keyword: METHOD
looking for keyword: OPERAND
External Forcing or Initialising 'horizontaleddyviscositycoefficient' from file 'eddy_viscosity_a81.xyz'.
          1747       1684608 viuh(lnx)
          1760       1684608 zh(nx)
Opened file : eddy_viscosity_a81.xyz
          1769       1031089 XS(NSMAX),YS(NSMAX),ZS(NSMAX)
Closed file : eddy_viscosity_a81.xyz
          1892      15466368 INDX(3,NSM)
Opened file : DFM_interpreted_initial_values_eddy_viscosity_a81.xyz.xyz
Closed file : DFM_interpreted_initial_values_eddy_viscosity_a81.xyz.xyz
          1906       1684608 viusp(lnx)
looking for keyword: QUANTITY
keyword QUANTITY NOT found!
External Forcing or Initialising 'horizontaleddyviscositycoefficient' from file 'eddy_viscosity_a81.xyz'.
Closed file : dcsmv6.ext
Closed file : dcsmv6_01_0001.cmp
Closed file : dcsmv6_01_0002.cmp
Closed file : dcsmv6_01_0003.cmp
Closed file : dcsmv6_01_0004.cmp
Closed file : dcsmv6_01_0005.cmp
Closed file : dcsmv6_01_0006.cmp
Closed file : dcsmv6_01_0007.cmp
Closed file : dcsmv6_01_0008.cmp
Closed file : dcsmv6_01_0009.cmp
Closed file : dcsmv6_01_0010.cmp
Closed file : dcsmv6_01_0011.cmp
Closed file : dcsmv6_01_0012.cmp
Closed file : dcsmv6_01_0013.cmp
Closed file : dcsmv6_01_0014.cmp
Closed file : dcsmv6_01_0015.cmp
Closed file : dcsmv6_01_0016.cmp
Closed file : dcsmv6_01_0017.cmp
Closed file : dcsmv6_01_0018.cmp
Closed file : dcsmv6_01_0019.cmp
Closed file : dcsmv6_01_0020.cmp
Closed file : dcsmv6_01_0021.cmp
Closed file : dcsmv6_01_0022.cmp
Closed file : dcsmv6_01_0023.cmp
Closed file : dcsmv6_01_0024.cmp
Closed file : dcsmv6_01_0025.cmp
Closed file : dcsmv6_01_0026.cmp
Closed file : dcsmv6_01_0027.cmp
Closed file : dcsmv6_01_0028.cmp
Closed file : dcsmv6_01_0029.cmp
Closed file : dcsmv6_01_0030.cmp
Closed file : dcsmv6_01_0031.cmp
Closed file : dcsmv6_01_0032.cmp
Closed file : dcsmv6_01_0033.cmp
Closed file : dcsmv6_01_0034.cmp
Closed file : dcsmv6_01_0035.cmp
Closed file : dcsmv6_01_0036.cmp
Closed file : dcsmv6_01_0037.cmp
Closed file : dcsmv6_01_0038.cmp
Closed file : dcsmv6_01_0039.cmp
Closed file : dcsmv6_01_0040.cmp
Closed file : dcsmv6_01_0041.cmp
Closed file : dcsmv6_01_0042.cmp
Closed file : dcsmv6_01_0043.cmp
Closed file : dcsmv6_01_0044.cmp
Closed file : dcsmv6_01_0045.cmp
Closed file : dcsmv6_01_0046.cmp
Closed file : dcsmv6_02_0001.cmp
Closed file : dcsmv6_02_0002.cmp
Closed file : dcsmv6_02_0003.cmp
Closed file : dcsmv6_02_0004.cmp
Closed file : dcsmv6_02_0005.cmp
Closed file : dcsmv6_02_0006.cmp
Closed file : dcsmv6_02_0007.cmp
Closed file : dcsmv6_02_0008.cmp
Closed file : dcsmv6_02_0009.cmp
Closed file : dcsmv6_02_0010.cmp
Closed file : dcsmv6_02_0011.cmp
Closed file : dcsmv6_02_0012.cmp
Closed file : dcsmv6_02_0013.cmp
Closed file : dcsmv6_02_0014.cmp
Closed file : dcsmv6_02_0015.cmp
Closed file : dcsmv6_02_0016.cmp
Closed file : dcsmv6_02_0017.cmp
Closed file : dcsmv6_02_0018.cmp
Closed file : dcsmv6_02_0019.cmp
Closed file : dcsmv6_02_0020.cmp
Closed file : dcsmv6_02_0021.cmp
Closed file : dcsmv6_02_0022.cmp
Closed file : dcsmv6_02_0023.cmp
Closed file : dcsmv6_02_0024.cmp
Closed file : dcsmv6_02_0025.cmp
Closed file : dcsmv6_02_0026.cmp
Closed file : dcsmv6_02_0027.cmp
Closed file : dcsmv6_02_0028.cmp
Closed file : dcsmv6_02_0029.cmp
Closed file : dcsmv6_02_0030.cmp
Closed file : dcsmv6_02_0031.cmp
Closed file : dcsmv6_02_0032.cmp
Closed file : dcsmv6_02_0033.cmp
Closed file : dcsmv6_02_0034.cmp
Closed file : dcsmv6_02_0035.cmp
Closed file : dcsmv6_02_0036.cmp
Closed file : dcsmv6_02_0037.cmp
Closed file : dcsmv6_02_0038.cmp
Closed file : dcsmv6_02_0039.cmp
Closed file : dcsmv6_02_0040.cmp
Closed file : dcsmv6_02_0041.cmp
Closed file : dcsmv6_02_0042.cmp
Closed file : dcsmv6_02_0043.cmp
Closed file : dcsmv6_02_0044.cmp
Closed file : dcsmv6_02_0045.cmp
Closed file : dcsmv6_02_0046.cmp
Closed file : dcsmv6_02_0047.cmp
Closed file : dcsmv6_02_0048.cmp
Closed file : dcsmv6_02_0049.cmp
Closed file : dcsmv6_02_0050.cmp
Closed file : dcsmv6_02_0051.cmp
Closed file : dcsmv6_02_0052.cmp
Closed file : dcsmv6_02_0053.cmp
Closed file : dcsmv6_02_0054.cmp
Closed file : dcsmv6_02_0055.cmp
Closed file : dcsmv6_02_0056.cmp
Closed file : dcsmv6_02_0057.cmp
Closed file : dcsmv6_02_0058.cmp
Closed file : dcsmv6_02_0059.cmp
Closed file : dcsmv6_02_0060.cmp
Closed file : dcsmv6_02_0061.cmp
Closed file : dcsmv6_02_0062.cmp
Closed file : dcsmv6_02_0063.cmp
Closed file : dcsmv6_02_0064.cmp
Closed file : dcsmv6_02_0065.cmp
Closed file : dcsmv6_02_0066.cmp
Closed file : dcsmv6_02_0067.cmp
Closed file : dcsmv6_02_0068.cmp
Closed file : dcsmv6_02_0069.cmp
Closed file : dcsmv6_02_0070.cmp
Closed file : dcsmv6_02_0071.cmp
Closed file : dcsmv6_02_0072.cmp
Closed file : dcsmv6_02_0073.cmp
Closed file : dcsmv6_02_0074.cmp
Closed file : dcsmv6_02_0075.cmp
Closed file : dcsmv6_02_0076.cmp
Closed file : dcsmv6_02_0077.cmp
Closed file : dcsmv6_02_0078.cmp
Closed file : dcsmv6_02_0079.cmp
Closed file : dcsmv6_02_0080.cmp
Closed file : dcsmv6_02_0081.cmp
Closed file : dcsmv6_02_0082.cmp
Closed file : dcsmv6_02_0083.cmp
Closed file : dcsmv6_02_0084.cmp
Closed file : dcsmv6_02_0085.cmp
Closed file : dcsmv6_02_0086.cmp
Closed file : dcsmv6_02_0087.cmp
Closed file : dcsmv6_02_0088.cmp
Closed file : dcsmv6_02_0089.cmp
Closed file : dcsmv6_02_0090.cmp
Closed file : dcsmv6_02_0091.cmp
Closed file : dcsmv6_02_0092.cmp
Closed file : dcsmv6_02_0093.cmp
Closed file : dcsmv6_02_0094.cmp
Closed file : dcsmv6_02_0095.cmp
Closed file : dcsmv6_02_0096.cmp
Closed file : dcsmv6_02_0097.cmp
Closed file : dcsmv6_02_0098.cmp
Closed file : dcsmv6_02_0099.cmp
Closed file : dcsmv6_02_0100.cmp
Closed file : dcsmv6_02_0101.cmp
Closed file : dcsmv6_02_0102.cmp
Closed file : dcsmv6_02_0103.cmp
Closed file : dcsmv6_02_0104.cmp
Closed file : dcsmv6_02_0105.cmp
Closed file : dcsmv6_02_0106.cmp
Closed file : dcsmv6_02_0107.cmp
Closed file : dcsmv6_02_0108.cmp
Closed file : dcsmv6_02_0109.cmp
Closed file : dcsmv6_02_0110.cmp
Closed file : dcsmv6_02_0111.cmp
Closed file : dcsmv6_02_0112.cmp
Closed file : dcsmv6_02_0113.cmp
Closed file : dcsmv6_02_0114.cmp
Closed file : dcsmv6_02_0115.cmp
Closed file : dcsmv6_02_0116.cmp
Closed file : dcsmv6_02_0117.cmp
Closed file : dcsmv6_02_0118.cmp
Closed file : dcsmv6_02_0119.cmp
Closed file : dcsmv6_02_0120.cmp
Closed file : dcsmv6_02_0121.cmp
Closed file : dcsmv6_02_0122.cmp
Closed file : dcsmv6_02_0123.cmp
Closed file : dcsmv6_02_0124.cmp
Closed file : dcsmv6_02_0125.cmp
Closed file : dcsmv6_02_0126.cmp
Closed file : dcsmv6_02_0127.cmp
Closed file : dcsmv6_02_0128.cmp
Closed file : dcsmv6_02_0129.cmp
Closed file : dcsmv6_02_0130.cmp
Closed file : dcsmv6_02_0131.cmp
Closed file : dcsmv6_02_0132.cmp
Closed file : dcsmv6_02_0133.cmp
Closed file : dcsmv6_02_0134.cmp
Closed file : dcsmv6_02_0135.cmp
Closed file : dcsmv6_02_0136.cmp
Closed file : dcsmv6_02_0137.cmp
Closed file : dcsmv6_02_0138.cmp
Closed file : dcsmv6_02_0139.cmp
Closed file : dcsmv6_02_0140.cmp
Closed file : dcsmv6_02_0141.cmp
Closed file : dcsmv6_02_0142.cmp
Closed file : dcsmv6_02_0143.cmp
Closed file : dcsmv6_02_0144.cmp
Closed file : dcsmv6_02_0145.cmp
Closed file : dcsmv6_02_0146.cmp
Closed file : dcsmv6_02_0147.cmp
Closed file : dcsmv6_02_0148.cmp
Closed file : dcsmv6_02_0149.cmp
Closed file : dcsmv6_02_0150.cmp
Closed file : dcsmv6_02_0151.cmp
Closed file : dcsmv6_02_0152.cmp
Closed file : dcsmv6_02_0153.cmp
Closed file : dcsmv6_02_0154.cmp
Closed file : dcsmv6_02_0155.cmp
Closed file : dcsmv6_02_0156.cmp
Closed file : dcsmv6_02_0157.cmp
Closed file : dcsmv6_02_0158.cmp
Closed file : dcsmv6_02_0159.cmp
Closed file : dcsmv6_02_0160.cmp
Closed file : dcsmv6_02_0161.cmp
Closed file : dcsmv6_02_0162.cmp
Closed file : dcsmv6_02_0163.cmp
Closed file : dcsmv6_02_0164.cmp
Closed file : dcsmv6_02_0165.cmp
Closed file : dcsmv6_02_0166.cmp
Closed file : dcsmv6_02_0167.cmp
Closed file : dcsmv6_02_0168.cmp
Closed file : dcsmv6_03_0001.cmp
Closed file : dcsmv6_03_0002.cmp
Closed file : dcsmv6_03_0003.cmp
Closed file : dcsmv6_03_0004.cmp
Closed file : dcsmv6_03_0005.cmp
Closed file : dcsmv6_03_0006.cmp
Closed file : dcsmv6_03_0007.cmp
Closed file : dcsmv6_03_0008.cmp
Closed file : dcsmv6_03_0009.cmp
Closed file : dcsmv6_03_0010.cmp
Closed file : dcsmv6_03_0011.cmp
Closed file : dcsmv6_03_0012.cmp
Closed file : dcsmv6_03_0013.cmp
Closed file : dcsmv6_03_0014.cmp
Closed file : dcsmv6_03_0015.cmp
Closed file : dcsmv6_03_0016.cmp
Closed file : dcsmv6_03_0017.cmp
Closed file : dcsmv6_03_0018.cmp
Closed file : dcsmv6_03_0019.cmp
Closed file : dcsmv6_03_0020.cmp
Closed file : dcsmv6_03_0021.cmp
Closed file : dcsmv6_03_0022.cmp
Closed file : dcsmv6_03_0023.cmp
Closed file : dcsmv6_03_0024.cmp
Closed file : dcsmv6_03_0025.cmp
Closed file : dcsmv6_03_0026.cmp
Closed file : dcsmv6_03_0027.cmp
Closed file : dcsmv6_03_0028.cmp
Closed file : dcsmv6_03_0029.cmp
Closed file : dcsmv6_03_0030.cmp
Closed file : dcsmv6_03_0031.cmp
Closed file : dcsmv6_03_0032.cmp
Closed file : dcsmv6_03_0033.cmp
Closed file : dcsmv6_03_0034.cmp
Closed file : dcsmv6_03_0035.cmp
Closed file : dcsmv6_03_0036.cmp
Closed file : dcsmv6_03_0037.cmp
Closed file : dcsmv6_03_0038.cmp
Closed file : dcsmv6_03_0039.cmp
Closed file : dcsmv6_03_0040.cmp
Closed file : dcsmv6_03_0041.cmp
Closed file : dcsmv6_03_0042.cmp
Closed file : dcsmv6_03_0043.cmp
Closed file : dcsmv6_03_0044.cmp
Closed file : dcsmv6_03_0045.cmp
Closed file : dcsmv6_03_0046.cmp
Closed file : dcsmv6_03_0047.cmp
Closed file : dcsmv6_03_0048.cmp
Closed file : dcsmv6_03_0049.cmp
Closed file : dcsmv6_03_0050.cmp
Closed file : dcsmv6_03_0051.cmp
Closed file : dcsmv6_03_0052.cmp
Closed file : dcsmv6_03_0053.cmp
Closed file : dcsmv6_03_0054.cmp
Closed file : dcsmv6_03_0055.cmp
Closed file : dcsmv6_03_0056.cmp
Closed file : dcsmv6_03_0057.cmp
Closed file : dcsmv6_03_0058.cmp
Closed file : dcsmv6_03_0059.cmp
Closed file : dcsmv6_03_0060.cmp
Closed file : dcsmv6_03_0061.cmp
Closed file : dcsmv6_03_0062.cmp
Closed file : dcsmv6_03_0063.cmp
Closed file : dcsmv6_03_0064.cmp
Closed file : dcsmv6_03_0065.cmp
Closed file : dcsmv6_03_0066.cmp
Closed file : dcsmv6_03_0067.cmp
Closed file : dcsmv6_03_0068.cmp
Closed file : dcsmv6_03_0069.cmp
Closed file : dcsmv6_03_0070.cmp
Closed file : dcsmv6_03_0071.cmp
Closed file : dcsmv6_03_0072.cmp
Closed file : dcsmv6_03_0073.cmp
Closed file : dcsmv6_03_0074.cmp
Closed file : dcsmv6_03_0075.cmp
Closed file : dcsmv6_03_0076.cmp
Closed file : dcsmv6_03_0077.cmp
Closed file : dcsmv6_03_0078.cmp
Closed file : dcsmv6_03_0079.cmp
Closed file : dcsmv6_03_0080.cmp
Closed file : dcsmv6_03_0081.cmp
Closed file : dcsmv6_03_0082.cmp
Closed file : dcsmv6_03_0083.cmp
Closed file : dcsmv6_03_0084.cmp
Closed file : dcsmv6_03_0085.cmp
Closed file : dcsmv6_03_0086.cmp
Closed file : dcsmv6_03_0087.cmp
Closed file : dcsmv6_03_0088.cmp
Closed file : dcsmv6_03_0089.cmp
Closed file : dcsmv6_03_0090.cmp
Closed file : dcsmv6_03_0091.cmp
Closed file : dcsmv6_03_0092.cmp
Closed file : dcsmv6_03_0093.cmp
Closed file : dcsmv6_03_0094.cmp
Closed file : dcsmv6_03_0095.cmp
Closed file : dcsmv6_03_0096.cmp
Closed file : dcsmv6_03_0097.cmp
Closed file : dcsmv6_03_0098.cmp
Closed file : dcsmv6_03_0099.cmp
Closed file : dcsmv6_03_0100.cmp
Closed file : dcsmv6_03_0101.cmp
Closed file : dcsmv6_03_0102.cmp
Closed file : dcsmv6_03_0103.cmp
Closed file : dcsmv6_03_0104.cmp
Closed file : dcsmv6_03_0105.cmp
Closed file : dcsmv6_03_0106.cmp
Closed file : dcsmv6_03_0107.cmp
Closed file : dcsmv6_03_0108.cmp
Closed file : dcsmv6_03_0109.cmp
Closed file : dcsmv6_03_0110.cmp
Closed file : dcsmv6_03_0111.cmp
Closed file : dcsmv6_03_0112.cmp
Closed file : dcsmv6_03_0113.cmp
Closed file : dcsmv6_03_0114.cmp
Closed file : dcsmv6_03_0115.cmp
Closed file : dcsmv6_03_0116.cmp
Closed file : dcsmv6_03_0117.cmp
Closed file : dcsmv6_03_0118.cmp
Closed file : dcsmv6_03_0119.cmp
Closed file : dcsmv6_03_0120.cmp
Closed file : dcsmv6_03_0121.cmp
Closed file : dcsmv6_03_0122.cmp
Closed file : dcsmv6_03_0123.cmp
Closed file : dcsmv6_03_0124.cmp
Closed file : dcsmv6_03_0125.cmp
Closed file : dcsmv6_03_0126.cmp
Closed file : dcsmv6_03_0127.cmp
Closed file : dcsmv6_03_0128.cmp
Closed file : dcsmv6_03_0129.cmp
Closed file : dcsmv6_03_0130.cmp
Closed file : dcsmv6_03_0131.cmp
Closed file : dcsmv6_03_0132.cmp
Closed file : dcsmv6_03_0133.cmp
Closed file : dcsmv6_03_0134.cmp
Closed file : dcsmv6_03_0135.cmp
Closed file : dcsmv6_03_0136.cmp
Closed file : dcsmv6_03_0137.cmp
Closed file : dcsmv6_03_0138.cmp
Closed file : dcsmv6_03_0139.cmp
Closed file : dcsmv6_03_0140.cmp
Closed file : dcsmv6_03_0141.cmp
Closed file : dcsmv6_03_0142.cmp
Closed file : dcsmv6_03_0143.cmp
Closed file : dcsmv6_03_0144.cmp
Closed file : dcsmv6_03_0145.cmp
Closed file : dcsmv6_03_0146.cmp
Closed file : dcsmv6_03_0147.cmp
Closed file : dcsmv6_03_0148.cmp
Closed file : dcsmv6_03_0149.cmp
Closed file : dcsmv6_03_0150.cmp
Closed file : dcsmv6_03_0151.cmp
Closed file : dcsmv6_03_0152.cmp
Closed file : dcsmv6_03_0153.cmp
Closed file : dcsmv6_03_0154.cmp
Closed file : dcsmv6_03_0155.cmp
Closed file : dcsmv6_03_0156.cmp
Closed file : dcsmv6_03_0157.cmp
Closed file : dcsmv6_03_0158.cmp
Closed file : dcsmv6_03_0159.cmp
Closed file : dcsmv6_03_0160.cmp
Closed file : dcsmv6_03_0161.cmp
Closed file : dcsmv6_03_0162.cmp
Closed file : dcsmv6_03_0163.cmp
Closed file : dcsmv6_03_0164.cmp
Closed file : dcsmv6_03_0165.cmp
Closed file : dcsmv6_03_0166.cmp
Closed file : dcsmv6_03_0167.cmp
Closed file : dcsmv6_03_0168.cmp
Closed file : dcsmv6_03_0169.cmp
Closed file : dcsmv6_03_0170.cmp
Closed file : dcsmv6_03_0171.cmp
Closed file : dcsmv6_03_0172.cmp
Closed file : dcsmv6_03_0173.cmp
Closed file : dcsmv6_03_0174.cmp
Closed file : dcsmv6_03_0175.cmp
Closed file : dcsmv6_03_0176.cmp
Closed file : dcsmv6_03_0177.cmp
Closed file : dcsmv6_03_0178.cmp
Closed file : dcsmv6_03_0179.cmp
Closed file : dcsmv6_03_0180.cmp
Closed file : dcsmv6_03_0181.cmp
Closed file : dcsmv6_03_0182.cmp
Closed file : dcsmv6_03_0183.cmp
Closed file : dcsmv6_03_0184.cmp
Closed file : dcsmv6_03_0185.cmp
Closed file : dcsmv6_03_0186.cmp
Closed file : dcsmv6_03_0187.cmp
Closed file : dcsmv6_03_0188.cmp
Closed file : dcsmv6_03_0189.cmp
Closed file : dcsmv6_03_0190.cmp
Closed file : dcsmv6_03_0191.cmp
Closed file : dcsmv6_03_0192.cmp
Closed file : dcsmv6_03_0193.cmp
Closed file : dcsmv6_03_0194.cmp
Closed file : dcsmv6_03_0195.cmp
Closed file : dcsmv6_03_0196.cmp
          1913        851469 ij(nodtot)
          1919        851469 nodbr2(nodtot)
          1926        851469 nbrstk(nodtot)
          1933        851469 nodstk(nodtot)
          1940        851469 noel(nodtot)
          1947        851469 noel0(nodtot)
          1954        851469 ia(nodtot)
          1960        851469 row(nodtot)
          1974       1684608 lv2(lintot)
          2063       3321027 ccr(0:ijstck)
          2090       3321027 bbl(0:ijstck)
          2103       1702938 bbr(nodtot), ddr(nodtot)
          2137       4257345 d0(nodtot), zkr(nodtot),pk(0:nodtot), apk(nodtot), rk(nodtot)
nogauss , nocg :         405930        443665
          2151       1684608 klnup(6,lnx)
          2164       1684608 slnup(6,lnx)
Modelinit finished   at: 10:56:44, 17-04-2013
* Active Model definition:
# Generated on 10:56:44, 17-04-2013
# Deltares, D-Flow FM Version 1.1.61.26790M, Apr 05 2013, 18:04:20

[model]
Program              = D-Flow FM
Version              = 1.1.61.26790M
AutoStart            = 0                   # Autostart simulation after loading MDU or not (0=no, 1=autostart, 2=autostartstop).

[geometry]
NetFile              = par16_net.nc        # *_net.nc
BathymetryFile       =                     # *.xyb
WaterLevIniFile      =                     # Initial water levels sample file *.xyz
LandBoundaryFile     =                     # Only for plotting
ThinDamFile          = dcsmv6_net.thd      # *_thd.pli, Polyline(s) for tracing thin dams.
FixedWeirFile        =                     # *._fxw.pli, Polyline(s) x,y,z, z = fixed weir top levels
ProflocFile          =                     # *_proflocation.xyz)    x,y,z, z = profile refnumber
ProfdefFile          =                     # *_profdefinition.def) definition for all profile nrs
ManholeFile          =                     # *...
WaterLevIni          = 0.                  # Initial water level
Bedlevuni            = -5.                 # Uniform bottom level, (only if bedlevtype>=3, used at missing z values in netfile
BedlevType           = 3                   # 1 : Bottom levels at waterlevel cells (=flow nodes), like tiles xz, yz, bl , bob = max(bl left, bl right)
                                           # 2 : Bottom levels at velocity points  (=flow links),            xu, yu, blu, bob = blu,    bl = lowest connected link
                                           # 3 : Bottom levels at velocity points  (=flow links), using mean network levels xk, yk, zk  bl = lowest connected link
                                           # 4 : Bottom levels at velocity points  (=flow links), using min  network levels xk, yk, zk  bl = lowest connected link
                                           # 5 : Bottom levels at velocity points  (=flow links), using max  network levels xk, yk, zk  bl = lowest connected link
PartitionFile        =                     # *_part.pol, polyline(s) x,y
AngLat               = 0.                  # Angle of latitude (deg), 0=no Coriolis
Conveyance2D         = 3                   # -1:R=HU,0:R=H, 1:R=A/P, 2:K=analytic-1D conv, 3:K=analytic-2D conv
Makeorthocenters     = 0                   # 1=yes, 0=no switch from circumcentres to orthocentres in geominit

[numerics]
CFLMax               = 0.7                 # Max. Courant nr.
CFLWaveFrac          = 0.1                 # Wave velocity fraction, total courant vel = u + cflw*wavevelocity
AdvecType            = 3                   # Adv type, 0=no, 1= Wenneker, qu-udzt, 2=1, q(uio-u), 3=Perot q(uio-u), 4=Perot q(ui-u), 5=Perot q(ui-u) without itself
Limtypmom            = 4                   # Limiter type for cell center advection velocity, 0=no, 1=minmod,2=vanLeer,3=Kooren,4=Monotone Central
Limtypsa             = 0                   # Limiter type for salinity transport,           0=no, 1=minmod,2=vanLeer,3=Kooren,4=Monotone Central
Icgsolver            = 4                   # Solver type , 1 = sobekGS_OMP, 2 = sobekGS_OMPthreadsafe, 3 = sobekGS, 4 = sobekGS + Saadilud, 5 = parallel/global Saad, 6 = parallel/Petsc, 7 = parallel/GS
Maxdegree            = 6                   # Maximum degree in Gauss elimination

[physics]
UnifFrictCoef        = 2.3d-2              # Uniform friction coefficient, 0=no friction
UnifFrictType        = 1                   # 0=Chezy, 1=Manning, 2=White Colebrook, 3=z0 etc
Vicouv               = 0.                  # Uniform horizontal eddy viscosity (m2/s)
Dicouv               = 0.                  # Uniform horizontal eddy diffusivity (m2/s)
Smagorinsky          = 0.                  # Add Smagorinsky horizontal turbulence : vicu = vicu + ( (Smagorinsky*dx)**2)*S, e.g. 0.1
Elder                = 0.                  # Add Elder contribution                : vicu = vicu + Elder*kappa*ustar*H/6),   e.g. 1.0
irov                 = 0                   # 0=free slip, 1 = partial slip using wall_ks
wall_ks              = 0.                  # Nikuradse roughness for side walls, wall_z0=wall_ks/30
TidalForcing         = 1                   # Tidal forcing (0=no, 1=yes) (only for jsferic == 1)
Salinity             = 0                   # Include salinity, (0=no, 1=yes)

[wind]
ICdtyp               = 2                   # ( ), Cd = const, 2=S&B 2 breakpoints, 3= S&B 3 breakpoints
Cdbreakpoints        = 6.3d-4 7.23d-3      # ( ),   e.g. 0.00063  0.00723
Windspeedbreakpoints = 0. 100.             # (m/s), e.g. 0.0      100.0

[time]
RefDate              = 20120301            # Reference date (yyyymmdd)
Tunit                = M                   # Time units in MDU (H, M or S)
DtUser               = 120.                # User timestep in seconds (interval for external forcing update & his/map output)
DtMax                = 30.                 # Max timestep in seconds
DtInit               = 1.                  # Initial timestep in seconds
AutoTimestep         = 1                   # Use CFL timestep limit or not (1/0)
TStart               = 0.                  # Start time w.r.t. RefDate (in TUnit)
TStop                = 20160.              # Stop  time w.r.t. RefDate (in TUnit)

[restart]
RestartFile          =                     # Restart file, only map, hence: *_map.nc
RestartDateTime      =                     # Restart time (YYYYMMDDHHMMSS)

[external forcing]
ExtForceFile         = dcsmv6.ext          # *.ext

[output]
ObsFile              = mn_DCSMv6_02k._obs.xyn# *.xyn Coords+name of observation stations.
CrsFile              =                     # *_crs.pli Polyline(s) definining cross section(s).
HisFile              =                     # *_his.nc History file in NetCDF format.
HisInterval          = 10.                 # Interval (s) between history outputs
XLSInterval          = 0.                  # Interval (s) between XLS history
FlowGeomFile         =                     # *_flowgeom.nc Flow geometry file in NetCDF format.
MapFile              =                     # *_map.nc Map file in NetCDF format.
MapInterval          = 60.                 # Interval (s) between map file outputs
RstInterval          = 3600.               # Interval (s) between map file outputs
WaqFileBase          = par16               # Basename (without extension) for all Delwaq files to be written.
WaqInterval          = 0.                  # Interval (in s) between Delwaq file outputs
StatsInterval        = 0.                  # Interval (in s) between simulation statistics output.
SnapshotDir          = figures             # Directory where snapshots/screendumps are saved.
TimingsInterval      = 0.                  # Timings output interval
**
Opened NetCDF file 'DFM_OUTPUT_par16\par16_his.nc' as #  3.
Opened NetCDF file 'DFM_OUTPUT_par16\par16_map.nc' as #  4.
Opened file : DFM_OUTPUT_par16\par16_20120301_000001.rst
Closed file : DFM_OUTPUT_par16\par16_20120301_000001.rst
Show sideview
NO rai
Display network
NO NETWORK
Values at flow nodes
NO
Values at flow links
horizontal eddy viscosity coeff.  (m2/s)
Load samples         (*.xyz/*.dem/*.asc)
Opened file : eddy_viscosity_a81.xyz
          2173       1031089 XS(NSMAX),YS(NSMAX),ZS(NSMAX)
Closed file : eddy_viscosity_a81.xyz
YOU LOADED eddy_viscosity_a81.xyz
Values at flow links
NO
User interrupt
User interrupt
User interrupt
User interrupt
User interrupt
Change display   parameters
Display network
NO NETWORK
Display Samples
NO SAMPLE POINTS
Display Velocity vectors
Wind arcuv
Change display   parameters
Change display   parameters
Values at flow links
windstress                        (N/m2)
Values at flow links
abs(u1)                            (m/s)
Opened file : DFM_OUTPUT_par16\par16_20120301_010200.rst
Closed file : DFM_OUTPUT_par16\par16_20120301_010200.rst
Opened file : DFM_OUTPUT_par16\par16_20120301_020200.rst
Closed file : DFM_OUTPUT_par16\par16_20120301_020200.rst
Opened file : DFM_OUTPUT_par16\par16_20120301_030200.rst
Closed file : DFM_OUTPUT_par16\par16_20120301_030200.rst
Opened file : DFM_OUTPUT_par16\par16_20120301_040200.rst
Closed file : DFM_OUTPUT_par16\par16_20120301_040200.rst
Opened file : DFM_OUTPUT_par16\par16_20120301_050200.rst
Closed file : DFM_OUTPUT_par16\par16_20120301_050200.rst
Opened file : DFM_OUTPUT_par16\par16_20120301_060200.rst
Closed file : DFM_OUTPUT_par16\par16_20120301_060200.rst
Opened file : DFM_OUTPUT_par16\par16_20120301_070200.rst
Closed file : DFM_OUTPUT_par16\par16_20120301_070200.rst
Opened file : DFM_OUTPUT_par16\par16_20120301_080200.rst
Closed file : DFM_OUTPUT_par16\par16_20120301_080200.rst
User interrupt
Display Velocity vectors
Velocity
Values at flow links
NO
