file-created-by  Deltares, D-Flow FM Version 1.1.124.38411, Feb 05 2015, 11:29:41
file-creation-date  14:22:03, 05-02-2015                                        
task      full-coupling
geometry  unstructured
horizontal-aggregation no
reference-time           '20010101000000'
hydrodynamic-start-time  '20010101000000'
hydrodynamic-stop-time   '20010101001000'
hydrodynamic-timestep    '00000000000500'
conversion-ref-time      '20010101000000'
conversion-start-time    '20010101000000'
conversion-stop-time     '20010101001000'
conversion-timestep      '00000000000500'
grid-cells-first-direction        2500
grid-cells-second-direction          1
number-hydrodynamic-layers           1
number-horizontal-exchanges       4900
number-water-quality-segments-per-layer       2500
number-water-quality-layers          1
hydrodynamic-file        'square'
aggregation-file         none
boundaries-file        'square.bnd'
waqgeom-file    'square_flowgeom.nc'
volumes-file             'square.vol'
areas-file               'square.are'
flows-file               'square.flo'
pointers-file            'square.poi'
lengths-file             'square.len'
salinity-file            none
temperature-file         none
vert-diffusion-file      none
horizontal-surfaces-file 'square.srf'
surfaces-file            'square.srfold'
shear-stresses-file      'square.tau'
attributes-file        'square.atr'
hydrodynamic-layers
          1.000
end-hydrodynamic-layers
water-quality-layers   
        1.000
end-water-quality-layers
