*
* WL | Delft Hydraulics, Delft3D-RGFGRID, Version 4.15.00, win32, Release, Sep 17 2006, 21:24:0
* File creation date: 15:16:44, 10-10-2006
*
Coordinate System = Cartesian
      56      52
 0 0 0
 ETA=    1   1.49054953125000000E+05   1.49472453125000000E+05   1.49876500000000000E+05   1.50260296875000000E+05   1.50600796875000000E+05
             1.50857265625000000E+05   1.51031843750000000E+05   1.51174109375000000E+05   1.51308015625000000E+05   1.51433156250000000E+05
             1.51548984375000000E+05   1.51659500000000000E+05   1.51758578125000000E+05   1.51854093750000000E+05   1.51941484375000000E+05
             1.52021984375000000E+05   1.52095046875000000E+05   1.52162500000000000E+05   1.52230953125000000E+05   1.52305656250000000E+05
             1.52378531250000000E+05   1.52443796875000000E+05   1.52503843750000000E+05   1.52562859375000000E+05   1.52620343750000000E+05
             1.52679718750000000E+05   1.52741515625000000E+05   1.52814250000000000E+05   1.52899375000000000E+05   1.52991203125000000E+05
             1.53085593750000000E+05   1.53174093750000000E+05   1.53252703125000000E+05   1.53319906250000000E+05   1.53381843750000000E+05
             1.53453609375000000E+05   1.53542593750000000E+05   1.53636687500000000E+05   1.53728781250000000E+05   1.53824578125000000E+05
             1.53932234375000000E+05   1.54056984375000000E+05   1.54191203125000000E+05   1.54338218750000000E+05   1.54503046875000000E+05
             1.54682265625000000E+05   1.54878078125000000E+05   1.55079750000000000E+05   1.55295375000000000E+05   1.55530156250000000E+05
             1.55827234375000000E+05   1.56245234375000000E+05   1.56734281250000000E+05   1.57249750000000000E+05   1.57769687500000000E+05
             1.58291125000000000E+05
 ETA=    2   1.50008562500000000E+05   1.50411484375000000E+05   1.50813453125000000E+05   1.51199156250000000E+05   1.51544515625000000E+05
             1.51806140625000000E+05   1.51983937500000000E+05   1.52130515625000000E+05   1.52266578125000000E+05   1.52393953125000000E+05
             1.52512390625000000E+05   1.52621921875000000E+05   1.52723109375000000E+05   1.52816312500000000E+05   1.52902093750000000E+05
             1.52980546875000000E+05   1.53051765625000000E+05   1.53117296875000000E+05   1.53184484375000000E+05   1.53258078125000000E+05
             1.53328859375000000E+05   1.53392187500000000E+05   1.53451171875000000E+05   1.53508109375000000E+05   1.53564375000000000E+05
             1.53621421875000000E+05   1.53682484375000000E+05   1.53752250000000000E+05   1.53834000000000000E+05   1.53925859375000000E+05
             1.54020937500000000E+05   1.54111906250000000E+05   1.54193562500000000E+05   1.54265687500000000E+05   1.54333687500000000E+05
             1.54407375000000000E+05   1.54494625000000000E+05   1.54586859375000000E+05   1.54676312500000000E+05   1.54771328125000000E+05
             1.54878296875000000E+05   1.54999625000000000E+05   1.55133656250000000E+05   1.55280718750000000E+05   1.55445656250000000E+05
             1.55628687500000000E+05   1.55825484375000000E+05   1.56033828125000000E+05   1.56253406250000000E+05   1.56492562500000000E+05
             1.56798031250000000E+05   1.57224000000000000E+05   1.57721890625000000E+05   1.58240859375000000E+05   1.58763234375000000E+05
             1.59279968750000000E+05
 ETA=    3   1.50991046875000000E+05   1.51383718750000000E+05   1.51779796875000000E+05   1.52165281250000000E+05   1.52513671875000000E+05
             1.52778843750000000E+05   1.52959218750000000E+05   1.53108000000000000E+05   1.53245828125000000E+05   1.53374640625000000E+05
             1.53494015625000000E+05   1.53604093750000000E+05   1.53705203125000000E+05   1.53798000000000000E+05   1.53882953125000000E+05
             1.53960359375000000E+05   1.54030453125000000E+05   1.54094890625000000E+05   1.54160906250000000E+05   1.54233265625000000E+05
             1.54302765625000000E+05   1.54364906250000000E+05   1.54422593750000000E+05   1.54478156250000000E+05   1.54532968750000000E+05
             1.54588500000000000E+05   1.54647750000000000E+05   1.54715500000000000E+05   1.54795281250000000E+05   1.54885515625000000E+05
             1.54980156250000000E+05   1.55071953125000000E+05   1.55156062500000000E+05   1.55231625000000000E+05   1.55303437500000000E+05
             1.55380531250000000E+05   1.55469562500000000E+05   1.55561515625000000E+05   1.55649687500000000E+05   1.55742843750000000E+05
             1.55847781250000000E+05   1.55967187500000000E+05   1.56099562500000000E+05   1.56245687500000000E+05   1.56410453125000000E+05
             1.56594234375000000E+05   1.56792796875000000E+05   1.57003796875000000E+05   1.57226765625000000E+05   1.57469890625000000E+05
             1.57780906250000000E+05   1.58214296875000000E+05   1.58719500000000000E+05   1.59243640625000000E+05   1.59769578125000000E+05
             1.60286000000000000E+05
 ETA=    4   1.52038531250000000E+05   1.52414984375000000E+05   1.52802984375000000E+05   1.53185859375000000E+05   1.53534640625000000E+05
             1.53800859375000000E+05   1.53982093750000000E+05   1.54131515625000000E+05   1.54269765625000000E+05   1.54398734375000000E+05
             1.54518140625000000E+05   1.54628046875000000E+05   1.54728906250000000E+05   1.54821250000000000E+05   1.54905765625000000E+05
             1.54982687500000000E+05   1.55052171875000000E+05   1.55115968750000000E+05   1.55181437500000000E+05   1.55253062500000000E+05
             1.55321984375000000E+05   1.55383562500000000E+05   1.55440703125000000E+05   1.55495750000000000E+05   1.55549937500000000E+05
             1.55604828125000000E+05   1.55663406250000000E+05   1.55730312500000000E+05   1.55808890625000000E+05   1.55897640625000000E+05
             1.55990828125000000E+05   1.56081609375000000E+05   1.56165343750000000E+05   1.56241625000000000E+05   1.56315171875000000E+05
             1.56394625000000000E+05   1.56485640625000000E+05   1.56578453125000000E+05   1.56666468750000000E+05   1.56758734375000000E+05
             1.56862406250000000E+05   1.56980250000000000E+05   1.57111062500000000E+05   1.57255671875000000E+05   1.57419203125000000E+05
             1.57602250000000000E+05   1.57800718750000000E+05   1.58012265625000000E+05   1.58236343750000000E+05   1.58481171875000000E+05
             1.58794968750000000E+05   1.59232781250000000E+05   1.59743187500000000E+05   1.60272265625000000E+05   1.60803515625000000E+05
             1.61324031250000000E+05
 ETA=    5   1.53162796875000000E+05   1.53528937500000000E+05   1.53908218750000000E+05   1.54286000000000000E+05   1.54632390625000000E+05
             1.54897421875000000E+05   1.55077796875000000E+05   1.55226375000000000E+05   1.55363750000000000E+05   1.55491859375000000E+05
             1.55610406250000000E+05   1.55719468750000000E+05   1.55819593750000000E+05   1.55911343750000000E+05   1.55995234375000000E+05
             1.56071687500000000E+05   1.56140812500000000E+05   1.56204359375000000E+05   1.56269500000000000E+05   1.56340906250000000E+05
             1.56409687500000000E+05   1.56471093750000000E+05   1.56528156250000000E+05   1.56583140625000000E+05   1.56637328125000000E+05
             1.56692171875000000E+05   1.56750593750000000E+05   1.56817078125000000E+05   1.56894796875000000E+05   1.56982250000000000E+05
             1.57073500000000000E+05   1.57162281250000000E+05   1.57244531250000000E+05   1.57320328125000000E+05   1.57394359375000000E+05
             1.57475046875000000E+05   1.57567312500000000E+05   1.57660796875000000E+05   1.57748656250000000E+05   1.57840234375000000E+05
             1.57942703125000000E+05   1.58058953125000000E+05   1.58187796875000000E+05   1.58330281250000000E+05   1.58491500000000000E+05
             1.58672234375000000E+05   1.58868703125000000E+05   1.59078640625000000E+05   1.59301578125000000E+05   1.59545687500000000E+05
             1.59859343750000000E+05   1.60298156250000000E+05   1.60810687500000000E+05   1.61342765625000000E+05   1.61879515625000000E+05
             1.62411609375000000E+05
 ETA=    6   1.54396156250000000E+05   1.54746250000000000E+05   1.55115906250000000E+05   1.55486359375000000E+05   1.55827625000000000E+05
             1.56089234375000000E+05   1.56267359375000000E+05   1.56414015625000000E+05   1.56549546875000000E+05   1.56675890625000000E+05
             1.56792781250000000E+05   1.56900359375000000E+05   1.56999156250000000E+05   1.57089781250000000E+05   1.57172843750000000E+05
             1.57248609375000000E+05   1.57317265625000000E+05   1.57380468750000000E+05   1.57445343750000000E+05   1.57516578125000000E+05
             1.57585265625000000E+05   1.57646750000000000E+05   1.57703812500000000E+05   1.57758796875000000E+05   1.57812906250000000E+05
             1.57867593750000000E+05   1.57925687500000000E+05   1.57991546875000000E+05   1.58068234375000000E+05   1.58154109375000000E+05
             1.58243437500000000E+05   1.58330109375000000E+05   1.58410734375000000E+05   1.58485812500000000E+05   1.58560109375000000E+05
             1.58641421875000000E+05   1.58734171875000000E+05   1.58827484375000000E+05   1.58914562500000000E+05   1.59004890625000000E+05
             1.59105546875000000E+05   1.59219500000000000E+05   1.59345734375000000E+05   1.59485156250000000E+05   1.59642812500000000E+05
             1.59819703125000000E+05   1.60012328125000000E+05   1.60218562500000000E+05   1.60438109375000000E+05   1.60679109375000000E+05
             1.60989796875000000E+05   1.61425937500000000E+05   1.61936968750000000E+05   1.62469062500000000E+05   1.63008078125000000E+05
             1.63545578125000000E+05
 ETA=    7   1.55696921875000000E+05   1.56039156250000000E+05   1.56397687500000000E+05   1.56758703125000000E+05   1.57092453125000000E+05
             1.57348718750000000E+05   1.57523343750000000E+05   1.57667125000000000E+05   1.57800046875000000E+05   1.57923968750000000E+05
             1.58038656250000000E+05   1.58144281250000000E+05   1.58241406250000000E+05   1.58330640625000000E+05   1.58412562500000000E+05
             1.58487453125000000E+05   1.58555406250000000E+05   1.58618031250000000E+05   1.58682406250000000E+05   1.58753187500000000E+05
             1.58821484375000000E+05   1.58882515625000000E+05   1.58939171875000000E+05   1.58993703125000000E+05   1.59047343750000000E+05
             1.59101437500000000E+05   1.59158718750000000E+05   1.59223500000000000E+05   1.59298734375000000E+05   1.59382750000000000E+05
             1.59469953125000000E+05   1.59554593750000000E+05   1.59633703125000000E+05   1.59708093750000000E+05   1.59782312500000000E+05
             1.59863765625000000E+05   1.59956250000000000E+05   1.60048718750000000E+05   1.60134406250000000E+05   1.60222765625000000E+05
             1.60320968750000000E+05   1.60431906250000000E+05   1.60554500000000000E+05   1.60689781250000000E+05   1.60842718750000000E+05
             1.61014343750000000E+05   1.61201406250000000E+05   1.61402109375000000E+05   1.61616156250000000E+05   1.61851750000000000E+05
             1.62156656250000000E+05   1.62586437500000000E+05   1.63092171875000000E+05   1.63620921875000000E+05   1.64159093750000000E+05
             1.64695171875000000E+05
 ETA=    8   1.56814265625000000E+05   1.57144578125000000E+05   1.57493359375000000E+05   1.57845625000000000E+05   1.58172093750000000E+05
             1.58423265625000000E+05   1.58594468750000000E+05   1.58735515625000000E+05   1.58866000000000000E+05   1.58987734375000000E+05
             1.59100484375000000E+05   1.59204453125000000E+05   1.59300093750000000E+05   1.59388125000000000E+05   1.59468953125000000E+05
             1.59542984375000000E+05   1.59610296875000000E+05   1.59672296875000000E+05   1.59736062500000000E+05   1.59806078125000000E+05
             1.59873609375000000E+05   1.59933937500000000E+05   1.59989875000000000E+05   1.60043671875000000E+05   1.60096515625000000E+05
             1.60149687500000000E+05   1.60206031250000000E+05   1.60269625000000000E+05   1.60343437500000000E+05   1.60425750000000000E+05
             1.60511250000000000E+05   1.60594359375000000E+05   1.60672421875000000E+05   1.60746359375000000E+05   1.60820593750000000E+05
             1.60902140625000000E+05   1.60994218750000000E+05   1.61085734375000000E+05   1.61169937500000000E+05   1.61256453125000000E+05
             1.61352328125000000E+05   1.61460312500000000E+05   1.61579484375000000E+05   1.61710875000000000E+05   1.61859343750000000E+05
             1.62025937500000000E+05   1.62207750000000000E+05   1.62403125000000000E+05   1.62611812500000000E+05   1.62842015625000000E+05
             1.63140921875000000E+05   1.63563890625000000E+05   1.64063687500000000E+05   1.64588296875000000E+05   1.65125312500000000E+05
             1.65665765625000000E+05
 ETA=    9   1.57618109375000000E+05   1.57946015625000000E+05   1.58287718750000000E+05   1.58633421875000000E+05   1.58954234375000000E+05
             1.59201281250000000E+05   1.59369843750000000E+05   1.59508781250000000E+05   1.59637421875000000E+05   1.59757484375000000E+05
             1.59868796875000000E+05   1.59971500000000000E+05   1.60066187500000000E+05   1.60153328125000000E+05   1.60233390625000000E+05
             1.60306750000000000E+05   1.60373453125000000E+05   1.60434921875000000E+05   1.60498109375000000E+05   1.60567468750000000E+05
             1.60634281250000000E+05   1.60693875000000000E+05   1.60749062500000000E+05   1.60802093750000000E+05   1.60854078125000000E+05
             1.60906437500000000E+05   1.60961828125000000E+05   1.61024390625000000E+05   1.61097000000000000E+05   1.61178000000000000E+05
             1.61262140625000000E+05   1.61344171875000000E+05   1.61421625000000000E+05   1.61495343750000000E+05   1.61569593750000000E+05
             1.61651109375000000E+05   1.61742781250000000E+05   1.61833437500000000E+05   1.61916500000000000E+05   1.62001500000000000E+05
             1.62095453125000000E+05   1.62201093750000000E+05   1.62317656250000000E+05   1.62446078125000000E+05   1.62591125000000000E+05
             1.62753906250000000E+05   1.62931640625000000E+05   1.63122812500000000E+05   1.63327343750000000E+05   1.63553296875000000E+05
             1.63847328125000000E+05   1.64264687500000000E+05   1.64759406250000000E+05   1.65280453125000000E+05   1.65816328125000000E+05
             1.66359562500000000E+05
 ETA=   10   1.58347828125000000E+05   1.58662187500000000E+05   1.58998078125000000E+05   1.59337750000000000E+05   1.59653218750000000E+05
             1.59896312500000000E+05   1.60062281250000000E+05   1.60199234375000000E+05   1.60326140625000000E+05   1.60444734375000000E+05
             1.60554796875000000E+05   1.60656421875000000E+05   1.60750140625000000E+05   1.60836468750000000E+05   1.60915890625000000E+05
             1.60988640625000000E+05   1.61054750000000000E+05   1.61115718750000000E+05   1.61178328125000000E+05   1.61246937500000000E+05
             1.61312921875000000E+05   1.61371687500000000E+05   1.61426031250000000E+05   1.61478203125000000E+05   1.61529390625000000E+05
             1.61580859375000000E+05   1.61635281250000000E+05   1.61696796875000000E+05   1.61768203125000000E+05   1.61847890625000000E+05
             1.61930781250000000E+05   1.62011859375000000E+05   1.62088687500000000E+05   1.62162171875000000E+05   1.62236421875000000E+05
             1.62317812500000000E+05   1.62408921875000000E+05   1.62498703125000000E+05   1.62580593750000000E+05   1.62664140625000000E+05
             1.62756328125000000E+05   1.62859890625000000E+05   1.62973968750000000E+05   1.63099718750000000E+05   1.63241578125000000E+05
             1.63400890625000000E+05   1.63574859375000000E+05   1.63762109375000000E+05   1.63962734375000000E+05   1.64184656250000000E+05
             1.64474046875000000E+05   1.64885953125000000E+05   1.65375656250000000E+05   1.65893203125000000E+05   1.66427578125000000E+05
             1.66971734375000000E+05
 ETA=   11   1.59053609375000000E+05   1.59362937500000000E+05   1.59693031250000000E+05   1.60026640625000000E+05   1.60336546875000000E+05
             1.60575484375000000E+05   1.60738859375000000E+05   1.60873750000000000E+05   1.60998890625000000E+05   1.61116015625000000E+05
             1.61224796875000000E+05   1.61325375000000000E+05   1.61418156250000000E+05   1.61503750000000000E+05   1.61582484375000000E+05
             1.61654578125000000E+05   1.61720093750000000E+05   1.61780500000000000E+05   1.61842562500000000E+05   1.61910421875000000E+05
             1.61975515625000000E+05   1.62033437500000000E+05   1.62086859375000000E+05   1.62138078125000000E+05   1.62188296875000000E+05
             1.62238750000000000E+05   1.62292125000000000E+05   1.62352468750000000E+05   1.62422625000000000E+05   1.62501031250000000E+05
             1.62582656250000000E+05   1.62662765625000000E+05   1.62738953125000000E+05   1.62812125000000000E+05   1.62886265625000000E+05
             1.62967484375000000E+05   1.63058000000000000E+05   1.63146796875000000E+05   1.63227453125000000E+05   1.63309593750000000E+05
             1.63400000000000000E+05   1.63501421875000000E+05   1.63613125000000000E+05   1.63736062500000000E+05   1.63874859375000000E+05
             1.64030656250000000E+05   1.64200953125000000E+05   1.64384343750000000E+05   1.64581031250000000E+05   1.64798953125000000E+05
             1.65083718750000000E+05   1.65490046875000000E+05   1.65974593750000000E+05   1.66488437500000000E+05   1.67020906250000000E+05
             1.67565343750000000E+05
 ETA=   12   1.59744937500000000E+05   1.60056734375000000E+05   1.60380625000000000E+05   1.60707859375000000E+05   1.61011921875000000E+05
             1.61246578125000000E+05   1.61407156250000000E+05   1.61539921875000000E+05   1.61663234375000000E+05   1.61778765625000000E+05
             1.61886203125000000E+05   1.61985703125000000E+05   1.62077546875000000E+05   1.62162343750000000E+05   1.62240359375000000E+05
             1.62311843750000000E+05   1.62376781250000000E+05   1.62436625000000000E+05   1.62498000000000000E+05   1.62565078125000000E+05
             1.62629343750000000E+05   1.62686390625000000E+05   1.62738906250000000E+05   1.62789187500000000E+05   1.62838406250000000E+05
             1.62887828125000000E+05   1.62940046875000000E+05   1.62999140625000000E+05   1.63067859375000000E+05   1.63144828125000000E+05
             1.63225093750000000E+05   1.63304125000000000E+05   1.63379640625000000E+05   1.63452468750000000E+05   1.63526406250000000E+05
             1.63607281250000000E+05   1.63697093750000000E+05   1.63784906250000000E+05   1.63864312500000000E+05   1.63944906250000000E+05
             1.64033546875000000E+05   1.64132875000000000E+05   1.64242109375000000E+05   1.64362359375000000E+05   1.64498140625000000E+05
             1.64650531250000000E+05   1.64817203125000000E+05   1.64996796875000000E+05   1.65189578125000000E+05   1.65403531250000000E+05
             1.65683671875000000E+05   1.66084421875000000E+05   1.66563812500000000E+05   1.67073765625000000E+05   1.67603968750000000E+05
             1.68147500000000000E+05
 ETA=   13   1.60411953125000000E+05   1.60711015625000000E+05   1.61029015625000000E+05   1.61349796875000000E+05   1.61647921875000000E+05
             1.61878203125000000E+05   1.62035984375000000E+05   1.62166687500000000E+05   1.62288125000000000E+05   1.62402000000000000E+05
             1.62508093750000000E+05   1.62606453125000000E+05   1.62697375000000000E+05   1.62781359375000000E+05   1.62858718750000000E+05
             1.62929593750000000E+05   1.62994000000000000E+05   1.63053250000000000E+05   1.63114031250000000E+05   1.63180359375000000E+05
             1.63243828125000000E+05   1.63300046875000000E+05   1.63351781250000000E+05   1.63401203125000000E+05   1.63449515625000000E+05
             1.63497953125000000E+05   1.63549140625000000E+05   1.63606984375000000E+05   1.63674296875000000E+05   1.63749734375000000E+05
             1.63828609375000000E+05   1.63906500000000000E+05   1.63981234375000000E+05   1.64053609375000000E+05   1.64127218750000000E+05
             1.64207671875000000E+05   1.64296781250000000E+05   1.64383500000000000E+05   1.64461656250000000E+05   1.64540812500000000E+05
             1.64627703125000000E+05   1.64725015625000000E+05   1.64832000000000000E+05   1.64949734375000000E+05   1.65082609375000000E+05
             1.65231875000000000E+05   1.65395109375000000E+05   1.65571250000000000E+05   1.65760500000000000E+05   1.65970750000000000E+05
             1.66246546875000000E+05   1.66642093750000000E+05   1.67116531250000000E+05   1.67622781250000000E+05   1.68150781250000000E+05
             1.68690968750000000E+05
 ETA=   14   1.61031500000000000E+05   1.61327187500000000E+05   1.61638609375000000E+05   1.61952656250000000E+05   1.62244656250000000E+05
             1.62470484375000000E+05   1.62625437500000000E+05   1.62753890625000000E+05   1.62873375000000000E+05   1.62985609375000000E+05
             1.63090265625000000E+05   1.63187375000000000E+05   1.63277328125000000E+05   1.63360484375000000E+05   1.63437125000000000E+05
             1.63507437500000000E+05   1.63571312500000000E+05   1.63630171875000000E+05   1.63690406250000000E+05   1.63756156250000000E+05
             1.63818984375000000E+05   1.63874468750000000E+05   1.63925453125000000E+05   1.63974093750000000E+05   1.64021515625000000E+05
             1.64069031250000000E+05   1.64119234375000000E+05   1.64175921875000000E+05   1.64241937500000000E+05   1.64315875000000000E+05
             1.64393343750000000E+05   1.64469953125000000E+05   1.64543765625000000E+05   1.64615500000000000E+05   1.64688656250000000E+05
             1.64768546875000000E+05   1.64856796875000000E+05   1.64942421875000000E+05   1.65019343750000000E+05   1.65097093750000000E+05
             1.65182328125000000E+05   1.65277718750000000E+05   1.65382656250000000E+05   1.65498109375000000E+05   1.65628343750000000E+05
             1.65774671875000000E+05   1.65934875000000000E+05   1.66107859375000000E+05   1.66293906250000000E+05   1.66500859375000000E+05
             1.66772687500000000E+05   1.67163468750000000E+05   1.67633421875000000E+05   1.68136296875000000E+05   1.68662375000000000E+05
             1.69203421875000000E+05
 ETA=   15   1.61613937500000000E+05   1.61908421875000000E+05   1.62212687500000000E+05   1.62519703125000000E+05   1.62805328125000000E+05
             1.63026515625000000E+05   1.63178484375000000E+05   1.63304578125000000E+05   1.63421984375000000E+05   1.63532421875000000E+05
             1.63635562500000000E+05   1.63731437500000000E+05   1.63820359375000000E+05   1.63902640625000000E+05   1.63978578125000000E+05
             1.64048265625000000E+05   1.64111640625000000E+05   1.64170046875000000E+05   1.64229843750000000E+05   1.64295093750000000E+05
             1.64357343750000000E+05   1.64412265625000000E+05   1.64462640625000000E+05   1.64510640625000000E+05   1.64557328125000000E+05
             1.64604062500000000E+05   1.64653343750000000E+05   1.64708921875000000E+05   1.64773609375000000E+05   1.64846109375000000E+05
             1.64922046875000000E+05   1.64997343750000000E+05   1.65070093750000000E+05   1.65141062500000000E+05   1.65213593750000000E+05
             1.65292703125000000E+05   1.65379906250000000E+05   1.65464375000000000E+05   1.65540078125000000E+05   1.65616468750000000E+05
             1.65700171875000000E+05   1.65793781250000000E+05   1.65896750000000000E+05   1.66010109375000000E+05   1.66138046875000000E+05
             1.66281828125000000E+05   1.66439343750000000E+05   1.66609578125000000E+05   1.66792734375000000E+05   1.66996718750000000E+05
             1.67265062500000000E+05   1.67651578125000000E+05   1.68117656250000000E+05   1.68617687500000000E+05   1.69142312500000000E+05
             1.69685375000000000E+05
 ETA=   16   1.62160625000000000E+05   1.62445515625000000E+05   1.62742421875000000E+05   1.63042125000000000E+05   1.63321234375000000E+05
             1.63537500000000000E+05   1.63686281250000000E+05   1.63809875000000000E+05   1.63925187500000000E+05   1.64033734375000000E+05
             1.64135296875000000E+05   1.64229781250000000E+05   1.64317578125000000E+05   1.64398953125000000E+05   1.64474125000000000E+05
             1.64543140625000000E+05   1.64606031250000000E+05   1.64664046875000000E+05   1.64723484375000000E+05   1.64788359375000000E+05
             1.64850250000000000E+05   1.64904828125000000E+05   1.64954765625000000E+05   1.65002234375000000E+05   1.65048343750000000E+05
             1.65094375000000000E+05   1.65142890625000000E+05   1.65197531250000000E+05   1.65260984375000000E+05   1.65332062500000000E+05
             1.65406484375000000E+05   1.65480359375000000E+05   1.65551921875000000E+05   1.65621875000000000E+05   1.65693515625000000E+05
             1.65771734375000000E+05   1.65857734375000000E+05   1.65940937500000000E+05   1.66015421875000000E+05   1.66090531250000000E+05
             1.66172812500000000E+05   1.66264921875000000E+05   1.66366171875000000E+05   1.66477750000000000E+05   1.66603625000000000E+05
             1.66745328125000000E+05   1.66900578125000000E+05   1.67068453125000000E+05   1.67249218750000000E+05   1.67450656250000000E+05
             1.67716093750000000E+05   1.68099109375000000E+05   1.68562031250000000E+05   1.69059890625000000E+05   1.69583625000000000E+05
             1.70127328125000000E+05
 ETA=   17   1.62662312500000000E+05   1.62942453125000000E+05   1.63231062500000000E+05   1.63522937500000000E+05   1.63795078125000000E+05
             1.64006171875000000E+05   1.64151546875000000E+05   1.64272531250000000E+05   1.64385500000000000E+05   1.64492062500000000E+05
             1.64591875000000000E+05   1.64684921875000000E+05   1.64771468750000000E+05   1.64851812500000000E+05   1.64926187500000000E+05
             1.64994609375000000E+05   1.65057000000000000E+05   1.65114625000000000E+05   1.65173718750000000E+05   1.65238250000000000E+05
             1.65299765625000000E+05   1.65354078125000000E+05   1.65403734375000000E+05   1.65450937500000000E+05   1.65496718750000000E+05
             1.65542359375000000E+05   1.65590265625000000E+05   1.65644203125000000E+05   1.65706609375000000E+05   1.65776359375000000E+05
             1.65849265625000000E+05   1.65921578125000000E+05   1.65991687500000000E+05   1.66060359375000000E+05   1.66130812500000000E+05
             1.66207781250000000E+05   1.66292375000000000E+05   1.66374203125000000E+05   1.66447484375000000E+05   1.66521453125000000E+05
             1.66602546875000000E+05   1.66693296875000000E+05   1.66793171875000000E+05   1.66903187500000000E+05   1.67027562500000000E+05
             1.67167515625000000E+05   1.67320953125000000E+05   1.67486968750000000E+05   1.67665828125000000E+05   1.67865296875000000E+05
             1.68128343750000000E+05   1.68508687500000000E+05   1.68969312500000000E+05   1.69465953125000000E+05   1.69989453125000000E+05
             1.70532515625000000E+05
 ETA=   18   1.63188875000000000E+05   1.63451890625000000E+05   1.63730875000000000E+05   1.64013484375000000E+05   1.64277281250000000E+05
             1.64482171875000000E+05   1.64623500000000000E+05   1.64741234375000000E+05   1.64851343750000000E+05   1.64955406250000000E+05
             1.65053093750000000E+05   1.65144343750000000E+05   1.65229421875000000E+05   1.65308546875000000E+05   1.65382000000000000E+05
             1.65449687500000000E+05   1.65511484375000000E+05   1.65568703125000000E+05   1.65627390625000000E+05   1.65691546875000000E+05
             1.65752796875000000E+05   1.65806843750000000E+05   1.65856328125000000E+05   1.65903375000000000E+05   1.65949015625000000E+05
             1.65994468750000000E+05   1.66042125000000000E+05   1.66095562500000000E+05   1.66157218750000000E+05   1.66225765625000000E+05
             1.66297078125000000E+05   1.66367500000000000E+05   1.66435687500000000E+05   1.66502437500000000E+05   1.66571000000000000E+05
             1.66646062500000000E+05   1.66728828125000000E+05   1.66809109375000000E+05   1.66881171875000000E+05   1.66954000000000000E+05
             1.67033968750000000E+05   1.67123578125000000E+05   1.67222296875000000E+05   1.67331171875000000E+05   1.67454234375000000E+05
             1.67592765625000000E+05   1.67744718750000000E+05   1.67909171875000000E+05   1.68086484375000000E+05   1.68284312500000000E+05
             1.68545546875000000E+05   1.68923859375000000E+05   1.69383062500000000E+05   1.69879578125000000E+05   1.70403921875000000E+05
             1.70946968750000000E+05
 ETA=   19   1.63774546875000000E+05   1.64021234375000000E+05   1.64287546875000000E+05   1.64558468750000000E+05   1.64811640625000000E+05
             1.65008656250000000E+05   1.65144781250000000E+05   1.65258359375000000E+05   1.65364843750000000E+05   1.65465640625000000E+05
             1.65560531250000000E+05   1.65649453125000000E+05   1.65732625000000000E+05   1.65810234375000000E+05   1.65882468750000000E+05
             1.65949203125000000E+05   1.66010265625000000E+05   1.66066937500000000E+05   1.66125093750000000E+05   1.66188750000000000E+05
             1.66249609375000000E+05   1.66303390625000000E+05   1.66352734375000000E+05   1.66399750000000000E+05   1.66445390625000000E+05
             1.66490953125000000E+05   1.66538687500000000E+05   1.66592078125000000E+05   1.66653375000000000E+05   1.66721031250000000E+05
             1.66790765625000000E+05   1.66858984375000000E+05   1.66924500000000000E+05   1.66988453125000000E+05   1.67054156250000000E+05
             1.67126343750000000E+05   1.67206453125000000E+05   1.67284781250000000E+05   1.67355406250000000E+05   1.67427062500000000E+05
             1.67505937500000000E+05   1.67594546875000000E+05   1.67692296875000000E+05   1.67800187500000000E+05   1.67922250000000000E+05
             1.68059703125000000E+05   1.68210375000000000E+05   1.68373500000000000E+05   1.68549468750000000E+05   1.68745890625000000E+05
             1.69005671875000000E+05   1.69382531250000000E+05   1.69841265625000000E+05   1.70338781250000000E+05   1.70865390625000000E+05
             1.71409531250000000E+05
 ETA=   20   1.64347437500000000E+05   1.64581421875000000E+05   1.64833671875000000E+05   1.65091734375000000E+05   1.65333406250000000E+05
             1.65521796875000000E+05   1.65652218750000000E+05   1.65761218750000000E+05   1.65863750000000000E+05   1.65961000000000000E+05
             1.66052796875000000E+05   1.66139140625000000E+05   1.66220203125000000E+05   1.66296125000000000E+05   1.66367031250000000E+05
             1.66432765625000000E+05   1.66493000000000000E+05   1.66548953125000000E+05   1.66606468750000000E+05   1.66669546875000000E+05
             1.66729921875000000E+05   1.66783375000000000E+05   1.66832609375000000E+05   1.66879640625000000E+05   1.66925500000000000E+05
             1.66971375000000000E+05   1.67019578125000000E+05   1.67073531250000000E+05   1.67135250000000000E+05   1.67202671875000000E+05
             1.67271218750000000E+05   1.67337328125000000E+05   1.67399890625000000E+05   1.67460453125000000E+05   1.67522468750000000E+05
             1.67590984375000000E+05   1.67667921875000000E+05   1.67743937500000000E+05   1.67813125000000000E+05   1.67883703125000000E+05
             1.67961687500000000E+05   1.68049562500000000E+05   1.68146687500000000E+05   1.68253953125000000E+05   1.68375390625000000E+05
             1.68512125000000000E+05   1.68662062500000000E+05   1.68824265625000000E+05   1.68999296875000000E+05   1.69194765625000000E+05
             1.69453531250000000E+05   1.69829718750000000E+05   1.70288906250000000E+05   1.70788312500000000E+05   1.71318328125000000E+05
             1.71867843750000000E+05
 ETA=   21   1.64803515625000000E+05   1.65027796875000000E+05   1.65267625000000000E+05   1.65514375000000000E+05   1.65745921875000000E+05
             1.65926734375000000E+05   1.66052187500000000E+05   1.66157281250000000E+05   1.66256312500000000E+05   1.66350546875000000E+05
             1.66439687500000000E+05   1.66523781250000000E+05   1.66602984375000000E+05   1.66677421875000000E+05   1.66747140625000000E+05
             1.66811953125000000E+05   1.66871406250000000E+05   1.66926640625000000E+05   1.66983578125000000E+05   1.67046046875000000E+05
             1.67106000000000000E+05   1.67159187500000000E+05   1.67208250000000000E+05   1.67255328125000000E+05   1.67301468750000000E+05
             1.67347890625000000E+05   1.67396843750000000E+05   1.67451765625000000E+05   1.67514468750000000E+05   1.67582515625000000E+05
             1.67650687500000000E+05   1.67715187500000000E+05   1.67775078125000000E+05   1.67832343750000000E+05   1.67890859375000000E+05
             1.67955765625000000E+05   1.68029656250000000E+05   1.68103656250000000E+05   1.68171609375000000E+05   1.68241390625000000E+05
             1.68318781250000000E+05   1.68406281250000000E+05   1.68503140625000000E+05   1.68610265625000000E+05   1.68731578125000000E+05
             1.68868109375000000E+05   1.69017578125000000E+05   1.69179453125000000E+05   1.69353968750000000E+05   1.69548984375000000E+05
             1.69807328125000000E+05   1.70183546875000000E+05   1.70643687500000000E+05   1.71145156250000000E+05   1.71678843750000000E+05
             1.72234765625000000E+05
 ETA=   22   1.65153046875000000E+05   1.65365031250000000E+05   1.65595421875000000E+05   1.65832984375000000E+05   1.66056312500000000E+05
             1.66231078125000000E+05   1.66352640625000000E+05   1.66454687500000000E+05   1.66551031250000000E+05   1.66642921875000000E+05
             1.66730062500000000E+05   1.66812468750000000E+05   1.66890265625000000E+05   1.66963500000000000E+05   1.67032125000000000E+05
             1.67096015625000000E+05   1.67154781250000000E+05   1.67209421875000000E+05   1.67265843750000000E+05   1.67327843750000000E+05
             1.67387500000000000E+05   1.67440500000000000E+05   1.67489515625000000E+05   1.67536687500000000E+05   1.67583171875000000E+05
             1.67630156250000000E+05   1.67679953125000000E+05   1.67736062500000000E+05   1.67800031250000000E+05   1.67868953125000000E+05
             1.67937171875000000E+05   1.68000687500000000E+05   1.68058625000000000E+05   1.68113171875000000E+05   1.68168640625000000E+05
             1.68230484375000000E+05   1.68301640625000000E+05   1.68373906250000000E+05   1.68440890625000000E+05   1.68510046875000000E+05
             1.68587109375000000E+05   1.68674421875000000E+05   1.68771312500000000E+05   1.68878500000000000E+05   1.68999765625000000E+05
             1.69136265625000000E+05   1.69285750000000000E+05   1.69447468750000000E+05   1.69621796875000000E+05   1.69816640625000000E+05
             1.70074796875000000E+05   1.70450984375000000E+05   1.70911984375000000E+05   1.71415140625000000E+05   1.71951468750000000E+05
             1.72512265625000000E+05
 ETA=   23   1.65444187500000000E+05   1.65651250000000000E+05   1.65874109375000000E+05   1.66103703125000000E+05   1.66319937500000000E+05
             1.66489671875000000E+05   1.66608062500000000E+05   1.66707609375000000E+05   1.66801812500000000E+05   1.66891812500000000E+05
             1.66977390625000000E+05   1.67058500000000000E+05   1.67135109375000000E+05   1.67207250000000000E+05   1.67275000000000000E+05
             1.67338109375000000E+05   1.67396234375000000E+05   1.67450328125000000E+05   1.67506203125000000E+05   1.67567718750000000E+05
             1.67627062500000000E+05   1.67679921875000000E+05   1.67728921875000000E+05   1.67776234375000000E+05   1.67823015625000000E+05
             1.67870546875000000E+05   1.67921250000000000E+05   1.67978515625000000E+05   1.68043937500000000E+05   1.68114046875000000E+05
             1.68182703125000000E+05   1.68245578125000000E+05   1.68301984375000000E+05   1.68354328125000000E+05   1.68407140625000000E+05
             1.68466296875000000E+05   1.68535093750000000E+05   1.68605703125000000E+05   1.68671750000000000E+05   1.68740375000000000E+05
             1.68817046875000000E+05   1.68904140625000000E+05   1.69000906250000000E+05   1.69108078125000000E+05   1.69229531250000000E+05
             1.69366046875000000E+05   1.69515546875000000E+05   1.69677125000000000E+05   1.69851281250000000E+05   1.70045906250000000E+05
             1.70303859375000000E+05   1.70679828125000000E+05   1.71141078125000000E+05   1.71645187500000000E+05   1.72182921875000000E+05
             1.72746328125000000E+05
 ETA=   24   1.65720390625000000E+05   1.65926031250000000E+05   1.66142515625000000E+05   1.66364640625000000E+05   1.66574281250000000E+05
             1.66739453125000000E+05   1.66855093750000000E+05   1.66952500000000000E+05   1.67044875000000000E+05   1.67133406250000000E+05
             1.67217640625000000E+05   1.67297671875000000E+05   1.67373234375000000E+05   1.67444406250000000E+05   1.67511312500000000E+05
             1.67573671875000000E+05   1.67631171875000000E+05   1.67684765625000000E+05   1.67740093750000000E+05   1.67801171875000000E+05
             1.67860203125000000E+05   1.67912968750000000E+05   1.67962031250000000E+05   1.68009515625000000E+05   1.68056625000000000E+05
             1.68104609375000000E+05   1.68156078125000000E+05   1.68214531250000000E+05   1.68281312500000000E+05   1.68352703125000000E+05
             1.68421953125000000E+05   1.68484515625000000E+05   1.68539687500000000E+05   1.68590234375000000E+05   1.68640765625000000E+05
             1.68697453125000000E+05   1.68763968750000000E+05   1.68832921875000000E+05   1.68897953125000000E+05   1.68965859375000000E+05
             1.69042156250000000E+05   1.69128968750000000E+05   1.69225531250000000E+05   1.69332671875000000E+05   1.69454093750000000E+05
             1.69590640625000000E+05   1.69740093750000000E+05   1.69901468750000000E+05   1.70075359375000000E+05   1.70269562500000000E+05
             1.70527078125000000E+05   1.70902375000000000E+05   1.71363000000000000E+05   1.71867093750000000E+05   1.72405156250000000E+05
             1.72968625000000000E+05
 ETA=   25   1.65999765625000000E+05   1.66205078125000000E+05   1.66415906250000000E+05   1.66630953125000000E+05   1.66834343750000000E+05
             1.66995234375000000E+05   1.67108359375000000E+05   1.67204000000000000E+05   1.67294906250000000E+05   1.67382187500000000E+05
             1.67465312500000000E+05   1.67544328125000000E+05   1.67619046875000000E+05   1.67689375000000000E+05   1.67755468750000000E+05
             1.67817062500000000E+05   1.67873875000000000E+05   1.67926921875000000E+05   1.67981750000000000E+05   1.68042312500000000E+05
             1.68101031250000000E+05   1.68153640625000000E+05   1.68202671875000000E+05   1.68250281250000000E+05   1.68297609375000000E+05
             1.68345968750000000E+05   1.68398015625000000E+05   1.68457484375000000E+05   1.68525750000000000E+05   1.68598390625000000E+05
             1.68668406250000000E+05   1.68730921875000000E+05   1.68785218750000000E+05   1.68834312500000000E+05   1.68882953125000000E+05
             1.68937375000000000E+05   1.69001625000000000E+05   1.69068796875000000E+05   1.69132656250000000E+05   1.69199734375000000E+05
             1.69275406250000000E+05   1.69361750000000000E+05   1.69458000000000000E+05   1.69564843750000000E+05   1.69686109375000000E+05
             1.69822515625000000E+05   1.69971718750000000E+05   1.70132750000000000E+05   1.70306156250000000E+05   1.70499781250000000E+05
             1.70756375000000000E+05   1.71130265625000000E+05   1.71589562500000000E+05   1.72092734375000000E+05   1.72630031250000000E+05
             1.73191984375000000E+05
 ETA=   26   1.66291000000000000E+05   1.66492968750000000E+05   1.66698671875000000E+05   1.66907015625000000E+05   1.67104468750000000E+05
             1.67261312500000000E+05   1.67372062500000000E+05   1.67466187500000000E+05   1.67555921875000000E+05   1.67642218750000000E+05
             1.67724421875000000E+05   1.67802546875000000E+05   1.67876421875000000E+05   1.67945968750000000E+05   1.68011265625000000E+05
             1.68072140625000000E+05   1.68128296875000000E+05   1.68180718750000000E+05   1.68235031250000000E+05   1.68295109375000000E+05
             1.68353421875000000E+05   1.68405781250000000E+05   1.68454671875000000E+05   1.68502250000000000E+05   1.68549609375000000E+05
             1.68598203125000000E+05   1.68650625000000000E+05   1.68710921875000000E+05   1.68780265625000000E+05   1.68854093750000000E+05
             1.68924906250000000E+05   1.68987656250000000E+05   1.69041531250000000E+05   1.69089515625000000E+05   1.69136515625000000E+05
             1.69189015625000000E+05   1.69251000000000000E+05   1.69316390625000000E+05   1.69378937500000000E+05   1.69445078125000000E+05
             1.69519875000000000E+05   1.69605609375000000E+05   1.69701328125000000E+05   1.69807734375000000E+05   1.69928562500000000E+05
             1.70064593750000000E+05   1.70213375000000000E+05   1.70373906250000000E+05   1.70546625000000000E+05   1.70739375000000000E+05
             1.70994640625000000E+05   1.71366562500000000E+05   1.71823468750000000E+05   1.72324703125000000E+05   1.72860578125000000E+05
             1.73420484375000000E+05
 ETA=   27   1.66595984375000000E+05   1.66792921875000000E+05   1.66993828125000000E+05   1.67195625000000000E+05   1.67387375000000000E+05
             1.67540546875000000E+05   1.67649265625000000E+05   1.67742046875000000E+05   1.67830734375000000E+05   1.67916125000000000E+05
             1.67997562500000000E+05   1.68074828125000000E+05   1.68147921875000000E+05   1.68216750000000000E+05   1.68281281250000000E+05
             1.68341406250000000E+05   1.68396859375000000E+05   1.68448671875000000E+05   1.68502390625000000E+05   1.68561875000000000E+05
             1.68619671875000000E+05   1.68671546875000000E+05   1.68720015625000000E+05   1.68767281250000000E+05   1.68814375000000000E+05
             1.68862812500000000E+05   1.68915343750000000E+05   1.68975937500000000E+05   1.69045953125000000E+05   1.69120750000000000E+05
             1.69192484375000000E+05   1.69255640625000000E+05   1.69309343750000000E+05   1.69356593750000000E+05   1.69402406250000000E+05
             1.69453171875000000E+05   1.69513218750000000E+05   1.69576765625000000E+05   1.69637906250000000E+05   1.69702875000000000E+05
             1.69776718750000000E+05   1.69861546875000000E+05   1.69956421875000000E+05   1.70062109375000000E+05   1.70182281250000000E+05
             1.70317640625000000E+05   1.70465609375000000E+05   1.70625265625000000E+05   1.70797000000000000E+05   1.70988515625000000E+05
             1.71241953125000000E+05   1.71611015625000000E+05   1.72064625000000000E+05   1.72563046875000000E+05   1.73096921875000000E+05
             1.73656015625000000E+05
 ETA=   28   1.66914218750000000E+05   1.67105734375000000E+05   1.67301765625000000E+05   1.67497390625000000E+05   1.67683656250000000E+05
             1.67833406250000000E+05   1.67940265625000000E+05   1.68031750000000000E+05   1.68119406250000000E+05   1.68203906250000000E+05
             1.68284687500000000E+05   1.68361187500000000E+05   1.68433453125000000E+05   1.68501546875000000E+05   1.68565250000000000E+05
             1.68624593750000000E+05   1.68679328125000000E+05   1.68730421875000000E+05   1.68783359375000000E+05   1.68842015625000000E+05
             1.68898921875000000E+05   1.68950078125000000E+05   1.68997828125000000E+05   1.69044328125000000E+05   1.69090750000000000E+05
             1.69138562500000000E+05   1.69190640625000000E+05   1.69251031250000000E+05   1.69321234375000000E+05   1.69396625000000000E+05
             1.69468937500000000E+05   1.69532546875000000E+05   1.69586390625000000E+05   1.69633250000000000E+05   1.69678218750000000E+05
             1.69727625000000000E+05   1.69785906250000000E+05   1.69847703125000000E+05   1.69907406250000000E+05   1.69971062500000000E+05
             1.70043687500000000E+05   1.70127296875000000E+05   1.70221062500000000E+05   1.70325640625000000E+05   1.70444750000000000E+05
             1.70578984375000000E+05   1.70725843750000000E+05   1.70884250000000000E+05   1.71054625000000000E+05   1.71244453125000000E+05
             1.71495625000000000E+05   1.71861234375000000E+05   1.72310734375000000E+05   1.72805437500000000E+05   1.73336859375000000E+05
             1.73895171875000000E+05
 ETA=   29   1.67241546875000000E+05   1.67430968750000000E+05   1.67621656250000000E+05   1.67811343750000000E+05   1.67992343750000000E+05
             1.68138828125000000E+05   1.68243906250000000E+05   1.68334109375000000E+05   1.68420656250000000E+05   1.68504281250000000E+05
             1.68584250000000000E+05   1.68660000000000000E+05   1.68731359375000000E+05   1.68798500000000000E+05   1.68861375000000000E+05
             1.68919843750000000E+05   1.68973796875000000E+05   1.69024031250000000E+05   1.69075984375000000E+05   1.69133515625000000E+05
             1.69189171875000000E+05   1.69239234375000000E+05   1.69285843750000000E+05   1.69331156250000000E+05   1.69376500000000000E+05
             1.69423250000000000E+05   1.69474375000000000E+05   1.69534046875000000E+05   1.69603875000000000E+05   1.69679078125000000E+05
             1.69751609375000000E+05   1.69815609375000000E+05   1.69869750000000000E+05   1.69916640625000000E+05   1.69961109375000000E+05
             1.70009421875000000E+05   1.70066156250000000E+05   1.70126156250000000E+05   1.70184390625000000E+05   1.70246609375000000E+05
             1.70317812500000000E+05   1.70400000000000000E+05   1.70492312500000000E+05   1.70595406250000000E+05   1.70713031250000000E+05
             1.70845796875000000E+05   1.70991046875000000E+05   1.71147796875000000E+05   1.71316328125000000E+05   1.71504156250000000E+05
             1.71752453125000000E+05   1.72114140625000000E+05   1.72558843750000000E+05   1.73049125000000000E+05   1.73577625000000000E+05
             1.74133750000000000E+05
 ETA=   30   1.67582140625000000E+05   1.67768484375000000E+05   1.67953796875000000E+05   1.68137843750000000E+05   1.68313843750000000E+05
             1.68457171875000000E+05   1.68560390625000000E+05   1.68649156250000000E+05   1.68734531250000000E+05   1.68817078125000000E+05
             1.68896015625000000E+05   1.68970828125000000E+05   1.69041250000000000E+05   1.69107375000000000E+05   1.69169234375000000E+05
             1.69226734375000000E+05   1.69279656250000000E+05   1.69328937500000000E+05   1.69379718750000000E+05   1.69435656250000000E+05
             1.69489718750000000E+05   1.69538187500000000E+05   1.69583296875000000E+05   1.69627078125000000E+05   1.69670875000000000E+05
             1.69716109375000000E+05   1.69765734375000000E+05   1.69823890625000000E+05   1.69892359375000000E+05   1.69966578125000000E+05
             1.70038890625000000E+05   1.70103015625000000E+05   1.70157625000000000E+05   1.70204750000000000E+05   1.70249015625000000E+05
             1.70296515625000000E+05   1.70351843750000000E+05   1.70410156250000000E+05   1.70466781250000000E+05   1.70527500000000000E+05
             1.70597046875000000E+05   1.70677468750000000E+05   1.70768000000000000E+05   1.70869250000000000E+05   1.70984859375000000E+05
             1.71115609375000000E+05   1.71258781250000000E+05   1.71413328125000000E+05   1.71579578125000000E+05   1.71764843750000000E+05
             1.72009875000000000E+05   1.72366921875000000E+05   1.72806421875000000E+05   1.73291765625000000E+05   1.73816812500000000E+05
             1.74370875000000000E+05
 ETA=   31   1.67936734375000000E+05   1.68117968750000000E+05   1.68298031250000000E+05   1.68476640625000000E+05   1.68647890625000000E+05
             1.68787890625000000E+05   1.68889046875000000E+05   1.68976328125000000E+05   1.69060421875000000E+05   1.69141734375000000E+05
             1.69219328125000000E+05   1.69292875000000000E+05   1.69362140625000000E+05   1.69427156250000000E+05   1.69487906250000000E+05
             1.69544187500000000E+05   1.69595812500000000E+05   1.69643875000000000E+05   1.69693296875000000E+05   1.69747375000000000E+05
             1.69799406250000000E+05   1.69845875000000000E+05   1.69888937500000000E+05   1.69930875000000000E+05   1.69972578125000000E+05
             1.70015750000000000E+05   1.70063203125000000E+05   1.70119000000000000E+05   1.70185187500000000E+05   1.70257593750000000E+05
             1.70328828125000000E+05   1.70392843750000000E+05   1.70447796875000000E+05   1.70495218750000000E+05   1.70539484375000000E+05
             1.70586437500000000E+05   1.70640484375000000E+05   1.70697187500000000E+05   1.70752156250000000E+05   1.70811125000000000E+05
             1.70878796875000000E+05   1.70957203125000000E+05   1.71045609375000000E+05   1.71144453125000000E+05   1.71257609375000000E+05
             1.71385656250000000E+05   1.71526125000000000E+05   1.71677937500000000E+05   1.71841390625000000E+05   1.72023640625000000E+05
             1.72264953125000000E+05   1.72616687500000000E+05   1.73050578125000000E+05   1.73530609375000000E+05   1.74051500000000000E+05
             1.74604093750000000E+05
 ETA=   32   1.68300234375000000E+05   1.68479453125000000E+05   1.68654546875000000E+05   1.68827812500000000E+05   1.68994328125000000E+05
             1.69130921875000000E+05   1.69229843750000000E+05   1.69315296875000000E+05   1.69397750000000000E+05   1.69477500000000000E+05
             1.69553546875000000E+05   1.69625546875000000E+05   1.69693406250000000E+05   1.69757062500000000E+05   1.69816359375000000E+05
             1.69871265625000000E+05   1.69921468750000000E+05   1.69968000000000000E+05   1.70015593750000000E+05   1.70067531250000000E+05
             1.70117171875000000E+05   1.70161109375000000E+05   1.70201828125000000E+05   1.70241234375000000E+05   1.70280468750000000E+05
             1.70320984375000000E+05   1.70365546875000000E+05   1.70418250000000000E+05   1.70481156250000000E+05   1.70550687500000000E+05
             1.70620093750000000E+05   1.70683437500000000E+05   1.70738500000000000E+05   1.70786265625000000E+05   1.70830609375000000E+05
             1.70877078125000000E+05   1.70929921875000000E+05   1.70984984375000000E+05   1.71038250000000000E+05   1.71095296875000000E+05
             1.71160796875000000E+05   1.71236890625000000E+05   1.71322609375000000E+05   1.71418578125000000E+05   1.71528687500000000E+05
             1.71653375000000000E+05   1.71790546875000000E+05   1.71938875000000000E+05   1.72099062500000000E+05   1.72277781250000000E+05
             1.72514703125000000E+05   1.72860859375000000E+05   1.73288687500000000E+05   1.73763015625000000E+05   1.74279578125000000E+05
             1.74829156250000000E+05
 ETA=   33   1.68677218750000000E+05   1.68855406250000000E+05   1.69026031250000000E+05   1.69193937500000000E+05   1.69355562500000000E+05
             1.69488406250000000E+05   1.69584687500000000E+05   1.69668015625000000E+05   1.69748390625000000E+05   1.69826125000000000E+05
             1.69900343750000000E+05   1.69970531250000000E+05   1.70036640625000000E+05   1.70098562500000000E+05   1.70156140625000000E+05
             1.70209328125000000E+05   1.70257812500000000E+05   1.70302484375000000E+05   1.70347953125000000E+05   1.70397281250000000E+05
             1.70444000000000000E+05   1.70485156250000000E+05   1.70523031250000000E+05   1.70559484375000000E+05   1.70595796875000000E+05
             1.70633078125000000E+05   1.70674109375000000E+05   1.70722781250000000E+05   1.70781296875000000E+05   1.70846796875000000E+05
             1.70913296875000000E+05   1.70975312500000000E+05   1.71030125000000000E+05   1.71078046875000000E+05   1.71122421875000000E+05
             1.71168468750000000E+05   1.71220078125000000E+05   1.71273328125000000E+05   1.71324593750000000E+05   1.71379546875000000E+05
             1.71442562500000000E+05   1.71515750000000000E+05   1.71598234375000000E+05   1.71690812500000000E+05   1.71797156250000000E+05
             1.71917953125000000E+05   1.72050968750000000E+05   1.72195343750000000E+05   1.72351390625000000E+05   1.72526093750000000E+05
             1.72758125000000000E+05   1.73098046875000000E+05   1.73519453125000000E+05   1.73987671875000000E+05   1.74499890625000000E+05
             1.75049093750000000E+05
 ETA=   34   1.69078000000000000E+05   1.69251906250000000E+05   1.69418171875000000E+05   1.69580593750000000E+05   1.69736921875000000E+05
             1.69865562500000000E+05   1.69958781250000000E+05   1.70039406250000000E+05   1.70117171875000000E+05   1.70192375000000000E+05
             1.70264218750000000E+05   1.70332187500000000E+05   1.70396109375000000E+05   1.70455812500000000E+05   1.70511328125000000E+05
             1.70562343750000000E+05   1.70608718750000000E+05   1.70651218750000000E+05   1.70694218750000000E+05   1.70740453125000000E+05
             1.70783921875000000E+05   1.70821812500000000E+05   1.70856453125000000E+05   1.70889593750000000E+05   1.70922328125000000E+05
             1.70955953125000000E+05   1.70992781250000000E+05   1.71036515625000000E+05   1.71089421875000000E+05   1.71149687500000000E+05
             1.71212125000000000E+05   1.71271812500000000E+05   1.71325718750000000E+05   1.71373500000000000E+05   1.71417703125000000E+05
             1.71463078125000000E+05   1.71513234375000000E+05   1.71564531250000000E+05   1.71613593750000000E+05   1.71665984375000000E+05
             1.71726062500000000E+05   1.71795812500000000E+05   1.71874437500000000E+05   1.71962906250000000E+05   1.72064718750000000E+05
             1.72180765625000000E+05   1.72308921875000000E+05   1.72448421875000000E+05   1.72599718750000000E+05   1.72769671875000000E+05
             1.72996203125000000E+05   1.73329312500000000E+05   1.73743718750000000E+05   1.74205421875000000E+05   1.74712671875000000E+05
             1.75259875000000000E+05
 ETA=   35   1.69518515625000000E+05   1.69685375000000000E+05   1.69846375000000000E+05   1.70002937500000000E+05   1.70153359375000000E+05
             1.70276921875000000E+05   1.70366406250000000E+05   1.70443609375000000E+05   1.70517968750000000E+05   1.70589875000000000E+05
             1.70658609375000000E+05   1.70723671875000000E+05   1.70784703125000000E+05   1.70841640625000000E+05   1.70894421875000000E+05
             1.70942796875000000E+05   1.70986546875000000E+05   1.71026390625000000E+05   1.71066468750000000E+05   1.71109156250000000E+05
             1.71148828125000000E+05   1.71183062500000000E+05   1.71214015625000000E+05   1.71243281250000000E+05   1.71271921875000000E+05
             1.71301140625000000E+05   1.71333062500000000E+05   1.71370875000000000E+05   1.71417000000000000E+05   1.71470500000000000E+05
             1.71527359375000000E+05   1.71583375000000000E+05   1.71635328125000000E+05   1.71682218750000000E+05   1.71725734375000000E+05
             1.71770078125000000E+05   1.71818390625000000E+05   1.71867187500000000E+05   1.71913562500000000E+05   1.71962875000000000E+05
             1.72019359375000000E+05   1.72084906250000000E+05   1.72158953125000000E+05   1.72242328125000000E+05   1.72338718750000000E+05
             1.72448859375000000E+05   1.72571109375000000E+05   1.72704656250000000E+05   1.72850187500000000E+05   1.73014484375000000E+05
             1.73234468750000000E+05   1.73559828125000000E+05   1.73966593750000000E+05   1.74421406250000000E+05   1.74922734375000000E+05
             1.75465203125000000E+05
 ETA=   36   1.70005171875000000E+05   1.70167187500000000E+05   1.70321250000000000E+05   1.70471328125000000E+05   1.70615062500000000E+05
             1.70732531250000000E+05   1.70817203125000000E+05   1.70890125000000000E+05   1.70960250000000000E+05   1.71028000000000000E+05
             1.71092671875000000E+05   1.71153875000000000E+05   1.71211250000000000E+05   1.71264656250000000E+05   1.71313968750000000E+05
             1.71359062500000000E+05   1.71399562500000000E+05   1.71436218750000000E+05   1.71472875000000000E+05   1.71511484375000000E+05
             1.71546921875000000E+05   1.71577062500000000E+05   1.71603875000000000E+05   1.71628921875000000E+05   1.71653156250000000E+05
             1.71677437500000000E+05   1.71703796875000000E+05   1.71735031250000000E+05   1.71773375000000000E+05   1.71818781250000000E+05
             1.71868578125000000E+05   1.71919281250000000E+05   1.71967843750000000E+05   1.72012656250000000E+05   1.72054625000000000E+05
             1.72097187500000000E+05   1.72143062500000000E+05   1.72188828125000000E+05   1.72231906250000000E+05   1.72277562500000000E+05
             1.72329734375000000E+05   1.72390328125000000E+05   1.72458859375000000E+05   1.72536234375000000E+05   1.72626031250000000E+05
             1.72729140625000000E+05   1.72844234375000000E+05   1.72970718750000000E+05   1.73109343750000000E+05   1.73266937500000000E+05
             1.73479234375000000E+05   1.73795671875000000E+05   1.74193875000000000E+05   1.74641484375000000E+05   1.75135703125000000E+05
             1.75672578125000000E+05
 ETA=   37   1.70472125000000000E+05   1.70627765625000000E+05   1.70774953125000000E+05   1.70918812500000000E+05   1.71055968750000000E+05
             1.71167250000000000E+05   1.71247031250000000E+05   1.71315562500000000E+05   1.71381343750000000E+05   1.71444765625000000E+05
             1.71505281250000000E+05   1.71562453125000000E+05   1.71616031250000000E+05   1.71665828125000000E+05   1.71711703125000000E+05
             1.71753437500000000E+05   1.71790750000000000E+05   1.71824375000000000E+05   1.71857687500000000E+05   1.71892468750000000E+05
             1.71923937500000000E+05   1.71950265625000000E+05   1.71973390625000000E+05   1.71994609375000000E+05   1.72014796875000000E+05
             1.72034750000000000E+05   1.72056093750000000E+05   1.72081265625000000E+05   1.72112468750000000E+05   1.72150203125000000E+05
             1.72192859375000000E+05   1.72237937500000000E+05   1.72282437500000000E+05   1.72324468750000000E+05   1.72364250000000000E+05
             1.72404671875000000E+05   1.72447875000000000E+05   1.72490562500000000E+05   1.72530468750000000E+05   1.72572546875000000E+05
             1.72620578125000000E+05   1.72676312500000000E+05   1.72739484375000000E+05   1.72811046875000000E+05   1.72894328125000000E+05
             1.72990625000000000E+05   1.73098703125000000E+05   1.73218234375000000E+05   1.73350171875000000E+05   1.73501062500000000E+05
             1.73705812500000000E+05   1.74013375000000000E+05   1.74403359375000000E+05   1.74844250000000000E+05   1.75331781250000000E+05
             1.75863187500000000E+05
 ETA=   38   1.70918796875000000E+05   1.71066843750000000E+05   1.71207671875000000E+05   1.71345515625000000E+05   1.71476140625000000E+05
             1.71581281250000000E+05   1.71656218750000000E+05   1.71720390625000000E+05   1.71781843750000000E+05   1.71841046875000000E+05
             1.71897421875000000E+05   1.71950656250000000E+05   1.72000484375000000E+05   1.72046734375000000E+05   1.72089281250000000E+05
             1.72127718750000000E+05   1.72162078125000000E+05   1.72192843750000000E+05   1.72223125000000000E+05   1.72254453125000000E+05
             1.72282421875000000E+05   1.72305453125000000E+05   1.72325312500000000E+05   1.72343218750000000E+05   1.72359906250000000E+05
             1.72376140625000000E+05   1.72393250000000000E+05   1.72413281250000000E+05   1.72438250000000000E+05   1.72469156250000000E+05
             1.72505312500000000E+05   1.72544843750000000E+05   1.72585062500000000E+05   1.72623890625000000E+05   1.72661187500000000E+05
             1.72699171875000000E+05   1.72739640625000000E+05   1.72779312500000000E+05   1.72816218750000000E+05   1.72854937500000000E+05
             1.72899078125000000E+05   1.72950312500000000E+05   1.73008531250000000E+05   1.73074578125000000E+05   1.73151859375000000E+05
             1.73241765625000000E+05   1.73343281250000000E+05   1.73456343750000000E+05   1.73581875000000000E+05   1.73726359375000000E+05
             1.73923859375000000E+05   1.74222812500000000E+05   1.74604890625000000E+05   1.75039437500000000E+05   1.75521031250000000E+05
             1.76044031250000000E+05
 ETA=   39   1.71402718750000000E+05   1.71544812500000000E+05   1.71678718750000000E+05   1.71809843750000000E+05   1.71933171875000000E+05
             1.72031515625000000E+05   1.72101234375000000E+05   1.72160578125000000E+05   1.72217250000000000E+05   1.72271828125000000E+05
             1.72323796875000000E+05   1.72372750000000000E+05   1.72418546875000000E+05   1.72460937500000000E+05   1.72499812500000000E+05
             1.72534828125000000E+05   1.72565984375000000E+05   1.72593796875000000E+05   1.72621046875000000E+05   1.72648937500000000E+05
             1.72673484375000000E+05   1.72693343750000000E+05   1.72710062500000000E+05   1.72724734375000000E+05   1.72738109375000000E+05
             1.72750890625000000E+05   1.72764031250000000E+05   1.72779250000000000E+05   1.72798421875000000E+05   1.72822750000000000E+05
             1.72852437500000000E+05   1.72886140625000000E+05   1.72921562500000000E+05   1.72956734375000000E+05   1.72990968750000000E+05
             1.73026140625000000E+05   1.73063515625000000E+05   1.73099968750000000E+05   1.73133625000000000E+05   1.73168843750000000E+05
             1.73208953125000000E+05   1.73255546875000000E+05   1.73308687500000000E+05   1.73369203125000000E+05   1.73440296875000000E+05
             1.73523593750000000E+05   1.73618281250000000E+05   1.73724562500000000E+05   1.73843359375000000E+05   1.73981046875000000E+05
             1.74170812500000000E+05   1.74460531250000000E+05   1.74833843750000000E+05   1.75261328125000000E+05   1.75737062500000000E+05
             1.76256296875000000E+05
 ETA=   40   1.71939187500000000E+05   1.72072687500000000E+05   1.72198906250000000E+05   1.72322359375000000E+05   1.72437562500000000E+05
             1.72528421875000000E+05   1.72592281250000000E+05   1.72646468750000000E+05   1.72698093750000000E+05   1.72747609375000000E+05
             1.72794718750000000E+05   1.72839125000000000E+05   1.72880640625000000E+05   1.72918921875000000E+05   1.72953890625000000E+05
             1.72985421875000000E+05   1.73013296875000000E+05   1.73038062500000000E+05   1.73062187500000000E+05   1.73086656250000000E+05
             1.73107875000000000E+05   1.73124656250000000E+05   1.73138406250000000E+05   1.73150203125000000E+05   1.73160593750000000E+05
             1.73170171875000000E+05   1.73179781250000000E+05   1.73190703125000000E+05   1.73204625000000000E+05   1.73223046875000000E+05
             1.73246500000000000E+05   1.73274406250000000E+05   1.73304890625000000E+05   1.73335796875000000E+05   1.73366515625000000E+05
             1.73398390625000000E+05   1.73432343750000000E+05   1.73465343750000000E+05   1.73495703125000000E+05   1.73527421875000000E+05
             1.73563453125000000E+05   1.73605359375000000E+05   1.73653343750000000E+05   1.73708250000000000E+05   1.73773218750000000E+05
             1.73849734375000000E+05   1.73937500000000000E+05   1.74036687500000000E+05   1.74148546875000000E+05   1.74279125000000000E+05
             1.74460562500000000E+05   1.74740140625000000E+05   1.75103703125000000E+05   1.75523250000000000E+05   1.75993328125000000E+05
             1.76511328125000000E+05
 ETA=   41   1.72528093750000000E+05   1.72648125000000000E+05   1.72765828125000000E+05   1.72880875000000000E+05   1.72987046875000000E+05
             1.73069812500000000E+05   1.73127515625000000E+05   1.73176250000000000E+05   1.73222562500000000E+05   1.73266906250000000E+05
             1.73308968750000000E+05   1.73348625000000000E+05   1.73385578125000000E+05   1.73419609375000000E+05   1.73450687500000000E+05
             1.73478625000000000E+05   1.73503296875000000E+05   1.73525156250000000E+05   1.73546312500000000E+05   1.73567546875000000E+05
             1.73585765625000000E+05   1.73599843750000000E+05   1.73611156250000000E+05   1.73620500000000000E+05   1.73628359375000000E+05
             1.73635328125000000E+05   1.73642046875000000E+05   1.73649484375000000E+05   1.73659187500000000E+05   1.73672531250000000E+05
             1.73690656250000000E+05   1.73713203125000000E+05   1.73738781250000000E+05   1.73765421875000000E+05   1.73792328125000000E+05
             1.73820609375000000E+05   1.73850921875000000E+05   1.73880421875000000E+05   1.73907484375000000E+05   1.73935718750000000E+05
             1.73967812500000000E+05   1.74005343750000000E+05   1.74048406250000000E+05   1.74097968750000000E+05   1.74157015625000000E+05
             1.74227046875000000E+05   1.74307984375000000E+05   1.74400250000000000E+05   1.74505171875000000E+05   1.74628578125000000E+05
             1.74801390625000000E+05   1.75070234375000000E+05   1.75423390625000000E+05   1.75834250000000000E+05   1.76298312500000000E+05
             1.76812671875000000E+05
 ETA=   42   1.73166359375000000E+05   1.73271500000000000E+05   1.73379765625000000E+05   1.73485515625000000E+05   1.73582015625000000E+05
             1.73656281250000000E+05   1.73707640625000000E+05   1.73750796875000000E+05   1.73791703125000000E+05   1.73830781250000000E+05
             1.73867781250000000E+05   1.73902562500000000E+05   1.73934953125000000E+05   1.73964796875000000E+05   1.73992093750000000E+05
             1.74016546875000000E+05   1.74038156250000000E+05   1.74057250000000000E+05   1.74075750000000000E+05   1.74094265625000000E+05
             1.74109937500000000E+05   1.74121968750000000E+05   1.74131390625000000E+05   1.74138828125000000E+05   1.74144953125000000E+05
             1.74150078125000000E+05   1.74154734375000000E+05   1.74159765625000000E+05   1.74166359375000000E+05   1.74176015625000000E+05
             1.74189875000000000E+05   1.74207921875000000E+05   1.74229031250000000E+05   1.74251546875000000E+05   1.74274718750000000E+05
             1.74299343750000000E+05   1.74326000000000000E+05   1.74351984375000000E+05   1.74375890625000000E+05   1.74401000000000000E+05
             1.74429609375000000E+05   1.74463046875000000E+05   1.74501718750000000E+05   1.74546453125000000E+05   1.74600031250000000E+05
             1.74664078125000000E+05   1.74738828125000000E+05   1.74824578125000000E+05   1.74922828125000000E+05   1.75039312500000000E+05
             1.75203593750000000E+05   1.75461453125000000E+05   1.75803390625000000E+05   1.76204968750000000E+05   1.76662296875000000E+05
             1.77175187500000000E+05
 ETA=   43   1.73847859375000000E+05   1.73945156250000000E+05   1.74043000000000000E+05   1.74138843750000000E+05   1.74225218750000000E+05
             1.74290843750000000E+05   1.74335812500000000E+05   1.74373437500000000E+05   1.74408906250000000E+05   1.74442718750000000E+05
             1.74474750000000000E+05   1.74504796875000000E+05   1.74532812500000000E+05   1.74558609375000000E+05   1.74582312500000000E+05
             1.74603625000000000E+05   1.74622468750000000E+05   1.74639250000000000E+05   1.74655531250000000E+05   1.74671921875000000E+05
             1.74685781250000000E+05   1.74696375000000000E+05   1.74704609375000000E+05   1.74711078125000000E+05   1.74716171875000000E+05
             1.74720265625000000E+05   1.74723843750000000E+05   1.74727453125000000E+05   1.74732296875000000E+05   1.74739656250000000E+05
             1.74750656250000000E+05   1.74765312500000000E+05   1.74782765625000000E+05   1.74801640625000000E+05   1.74821406250000000E+05
             1.74842578125000000E+05   1.74865796875000000E+05   1.74888546875000000E+05   1.74909703125000000E+05   1.74932046875000000E+05
             1.74957515625000000E+05   1.74987609375000000E+05   1.75022437500000000E+05   1.75063093750000000E+05   1.75112015625000000E+05
             1.75170921875000000E+05   1.75240140625000000E+05   1.75320125000000000E+05   1.75412312500000000E+05   1.75522250000000000E+05
             1.75678375000000000E+05   1.75925296875000000E+05   1.76255734375000000E+05   1.76647203125000000E+05   1.77096968750000000E+05
             1.77603406250000000E+05
 ETA=   44   1.74588171875000000E+05   1.74671203125000000E+05   1.74758656250000000E+05   1.74844140625000000E+05   1.74920125000000000E+05
             1.74977078125000000E+05   1.75015812500000000E+05   1.75048078125000000E+05   1.75078359375000000E+05   1.75107109375000000E+05
             1.75134437500000000E+05   1.75160062500000000E+05   1.75183984375000000E+05   1.75206312500000000E+05   1.75226765625000000E+05
             1.75245437500000000E+05   1.75262046875000000E+05   1.75277000000000000E+05   1.75291718750000000E+05   1.75306687500000000E+05
             1.75319500000000000E+05   1.75329437500000000E+05   1.75337250000000000E+05   1.75343406250000000E+05   1.75348312500000000E+05
             1.75352250000000000E+05   1.75355687500000000E+05   1.75359125000000000E+05   1.75363500000000000E+05   1.75369953125000000E+05
             1.75379390625000000E+05   1.75391921875000000E+05   1.75406703125000000E+05   1.75422718750000000E+05   1.75439609375000000E+05
             1.75458031250000000E+05   1.75478359375000000E+05   1.75498468750000000E+05   1.75517343750000000E+05   1.75537312500000000E+05
             1.75560406250000000E+05   1.75587718750000000E+05   1.75619671875000000E+05   1.75657031250000000E+05   1.75702218750000000E+05
             1.75757000000000000E+05   1.75821609375000000E+05   1.75896734375000000E+05   1.75983640625000000E+05   1.76087781250000000E+05
             1.76236328125000000E+05   1.76472859375000000E+05   1.76791640625000000E+05   1.77172343750000000E+05   1.77612984375000000E+05
             1.78109953125000000E+05
 ETA=   45   1.75378140625000000E+05   1.75448890625000000E+05   1.75526187500000000E+05   1.75601281250000000E+05   1.75667000000000000E+05
             1.75715578125000000E+05   1.75748265625000000E+05   1.75775421875000000E+05   1.75800890625000000E+05   1.75825031250000000E+05
             1.75847937500000000E+05   1.75869609375000000E+05   1.75890093750000000E+05   1.75909281250000000E+05   1.75927171875000000E+05
             1.75943734375000000E+05   1.75958734375000000E+05   1.75972468750000000E+05   1.75986203125000000E+05   1.76000531250000000E+05
             1.76013218750000000E+05   1.76023250000000000E+05   1.76031359375000000E+05   1.76038031250000000E+05   1.76043562500000000E+05
             1.76048125000000000E+05   1.76052218750000000E+05   1.76056406250000000E+05   1.76061515625000000E+05   1.76068328125000000E+05
             1.76077484375000000E+05   1.76089015625000000E+05   1.76102203125000000E+05   1.76116359375000000E+05   1.76131265625000000E+05
             1.76147500000000000E+05   1.76165671875000000E+05   1.76183906250000000E+05   1.76201046875000000E+05   1.76219343750000000E+05
             1.76240703125000000E+05   1.76266156250000000E+05   1.76295968750000000E+05   1.76331015625000000E+05   1.76373546875000000E+05
             1.76425171875000000E+05   1.76486218750000000E+05   1.76557421875000000E+05   1.76639984375000000E+05   1.76739078125000000E+05
             1.76880984375000000E+05   1.77107750000000000E+05   1.77415156250000000E+05   1.77784468750000000E+05   1.78214453125000000E+05
             1.78701484375000000E+05
 ETA=   46   1.76220734375000000E+05   1.76285140625000000E+05   1.76353312500000000E+05   1.76418343750000000E+05   1.76474156250000000E+05
             1.76514843750000000E+05   1.76542046875000000E+05   1.76564500000000000E+05   1.76585671875000000E+05   1.76605828125000000E+05
             1.76625140625000000E+05   1.76643593750000000E+05   1.76661343750000000E+05   1.76678265625000000E+05   1.76694343750000000E+05
             1.76709593750000000E+05   1.76723750000000000E+05   1.76736953125000000E+05   1.76750531250000000E+05   1.76765109375000000E+05
             1.76778468750000000E+05   1.76789484375000000E+05   1.76798718750000000E+05   1.76806656250000000E+05   1.76813531250000000E+05
             1.76819593750000000E+05   1.76825187500000000E+05   1.76831125000000000E+05   1.76837953125000000E+05   1.76846312500000000E+05
             1.76856578125000000E+05   1.76868343750000000E+05   1.76881171875000000E+05   1.76894500000000000E+05   1.76908328125000000E+05
             1.76923453125000000E+05   1.76940421875000000E+05   1.76957687500000000E+05   1.76974000000000000E+05   1.76991515625000000E+05
             1.77011953125000000E+05   1.77036406250000000E+05   1.77065140625000000E+05   1.77098984375000000E+05   1.77139953125000000E+05
             1.77189625000000000E+05   1.77248359375000000E+05   1.77316734375000000E+05   1.77396000000000000E+05   1.77491203125000000E+05
             1.77627500000000000E+05   1.77845703125000000E+05   1.78142328125000000E+05   1.78499734375000000E+05   1.78917640625000000E+05
             1.79394093750000000E+05
 ETA=   47   1.77124875000000000E+05   1.77184812500000000E+05   1.77244937500000000E+05   1.77300562500000000E+05   1.77347187500000000E+05
             1.77380656250000000E+05   1.77403015625000000E+05   1.77421531250000000E+05   1.77439031250000000E+05   1.77455984375000000E+05
             1.77472453125000000E+05   1.77488578125000000E+05   1.77504421875000000E+05   1.77520046875000000E+05   1.77535265625000000E+05
             1.77549937500000000E+05   1.77563906250000000E+05   1.77577296875000000E+05   1.77591468750000000E+05   1.77607078125000000E+05
             1.77621843750000000E+05   1.77634515625000000E+05   1.77645609375000000E+05   1.77655484375000000E+05   1.77664265625000000E+05
             1.77672375000000000E+05   1.77680250000000000E+05   1.77688656250000000E+05   1.77698125000000000E+05   1.77709000000000000E+05
             1.77721296875000000E+05   1.77734406250000000E+05   1.77747968750000000E+05   1.77761531250000000E+05   1.77775375000000000E+05
             1.77790375000000000E+05   1.77807218750000000E+05   1.77824359375000000E+05   1.77840640625000000E+05   1.77858125000000000E+05
             1.77878578125000000E+05   1.77902890625000000E+05   1.77931421875000000E+05   1.77964890625000000E+05   1.78005375000000000E+05
             1.78054187500000000E+05   1.78111562500000000E+05   1.78178250000000000E+05   1.78255265625000000E+05   1.78347531250000000E+05
             1.78479406250000000E+05   1.78690187500000000E+05   1.78976703125000000E+05   1.79322093750000000E+05   1.79726375000000000E+05
             1.80187000000000000E+05
 ETA=   48   1.78202125000000000E+05   1.78259656250000000E+05   1.78311640625000000E+05   1.78358015625000000E+05   1.78395890625000000E+05
             1.78422718750000000E+05   1.78440734375000000E+05   1.78455890625000000E+05   1.78470578125000000E+05   1.78485140625000000E+05
             1.78499812500000000E+05   1.78514578125000000E+05   1.78529578125000000E+05   1.78544765625000000E+05   1.78559984375000000E+05
             1.78575062500000000E+05   1.78589718750000000E+05   1.78604078125000000E+05   1.78619500000000000E+05   1.78637046875000000E+05
             1.78654140625000000E+05   1.78669296875000000E+05   1.78682921875000000E+05   1.78695453125000000E+05   1.78707062500000000E+05
             1.78718078125000000E+05   1.78729015625000000E+05   1.78740750000000000E+05   1.78753890625000000E+05   1.78768500000000000E+05
             1.78783937500000000E+05   1.78799687500000000E+05   1.78815171875000000E+05   1.78830156250000000E+05   1.78845156250000000E+05
             1.78861281250000000E+05   1.78879234375000000E+05   1.78897328125000000E+05   1.78914437500000000E+05   1.78932734375000000E+05
             1.78953921875000000E+05   1.78979062500000000E+05   1.79008406250000000E+05   1.79042562500000000E+05   1.79083500000000000E+05
             1.79132531250000000E+05   1.79189640625000000E+05   1.79255546875000000E+05   1.79331250000000000E+05   1.79421453125000000E+05
             1.79549781250000000E+05   1.79753890625000000E+05   1.80030140625000000E+05   1.80362296875000000E+05   1.80750156250000000E+05
             1.81191187500000000E+05
 ETA=   49   1.79788078125000000E+05   1.79829828125000000E+05   1.79871062500000000E+05   1.79906640625000000E+05   1.79934781250000000E+05
             1.79954656250000000E+05   1.79968453125000000E+05   1.79980718750000000E+05   1.79993203125000000E+05   1.80006328125000000E+05
             1.80020203125000000E+05   1.80034828125000000E+05   1.80050140625000000E+05   1.80066078125000000E+05   1.80082421875000000E+05
             1.80098953125000000E+05   1.80115281250000000E+05   1.80131468750000000E+05   1.80149250000000000E+05   1.80170015625000000E+05
             1.80190812500000000E+05   1.80209859375000000E+05   1.80227515625000000E+05   1.80244203125000000E+05   1.80260140625000000E+05
             1.80275609375000000E+05   1.80291265625000000E+05   1.80308078125000000E+05   1.80326765625000000E+05   1.80346937500000000E+05
             1.80367546875000000E+05   1.80387640625000000E+05   1.80406718750000000E+05   1.80424765625000000E+05   1.80442531250000000E+05
             1.80461343750000000E+05   1.80481968750000000E+05   1.80502515625000000E+05   1.80521656250000000E+05   1.80541796875000000E+05
             1.80564890625000000E+05   1.80591984375000000E+05   1.80623281250000000E+05   1.80659328125000000E+05   1.80702015625000000E+05
             1.80752468750000000E+05   1.80810578125000000E+05   1.80876828125000000E+05   1.80952187500000000E+05   1.81041062500000000E+05
             1.81166171875000000E+05   1.81363093750000000E+05   1.81627093750000000E+05   1.81941968750000000E+05   1.82307375000000000E+05
             1.82721828125000000E+05
 ETA=   50   1.81915031250000000E+05   1.81953796875000000E+05   1.81987437500000000E+05   1.82015765625000000E+05   1.82038281250000000E+05
             1.82055109375000000E+05   1.82067859375000000E+05   1.82080109375000000E+05   1.82093343750000000E+05   1.82107906250000000E+05
             1.82123781250000000E+05   1.82140781250000000E+05   1.82158687500000000E+05   1.82177343750000000E+05   1.82196515625000000E+05
             1.82215796875000000E+05   1.82234828125000000E+05   1.82253843750000000E+05   1.82274890625000000E+05   1.82299703125000000E+05
             1.82325171875000000E+05   1.82349000000000000E+05   1.82371578125000000E+05   1.82393437500000000E+05   1.82414750000000000E+05
             1.82435843750000000E+05   1.82457562500000000E+05   1.82481031250000000E+05   1.82506953125000000E+05   1.82534687500000000E+05
             1.82562515625000000E+05   1.82589015625000000E+05   1.82613687500000000E+05   1.82636687500000000E+05   1.82659078125000000E+05
             1.82682484375000000E+05   1.82707765625000000E+05   1.82732437500000000E+05   1.82754890625000000E+05   1.82778125000000000E+05
             1.82804406250000000E+05   1.82834765625000000E+05   1.82869234375000000E+05   1.82908500000000000E+05   1.82954250000000000E+05
             1.83007578125000000E+05   1.83068140625000000E+05   1.83136234375000000E+05   1.83212609375000000E+05   1.83301609375000000E+05
             1.83425343750000000E+05   1.83617468750000000E+05   1.83871437500000000E+05   1.84170093750000000E+05   1.84512156250000000E+05
             1.84893218750000000E+05
 ETA=   51   1.84181250000000000E+05   1.84213265625000000E+05   1.84245171875000000E+05   1.84273750000000000E+05   1.84298609375000000E+05
             1.84318921875000000E+05   1.84334906250000000E+05   1.84350312500000000E+05   1.84367046875000000E+05   1.84385296875000000E+05
[...]
             6.08645000000000000E+05   6.08442375000000000E+05   6.08204187500000000E+05   6.07917687500000000E+05   6.07590125000000000E+05
             6.07245250000000000E+05   6.06909375000000000E+05   6.06600000000000000E+05   6.06323062500000000E+05   6.06069812500000000E+05
             6.05819500000000000E+05   6.05558687500000000E+05   6.05308875000000000E+05   6.05083000000000000E+05   6.04852687500000000E+05
             6.04598875000000000E+05   6.04315250000000000E+05   6.04006125000000000E+05   6.03669812500000000E+05   6.03294750000000000E+05
             6.02880000000000000E+05   6.02435937500000000E+05   6.01967250000000000E+05   6.01473625000000000E+05   6.00936562500000000E+05
             6.00246125000000000E+05   5.99279500000000000E+05   5.98151437500000000E+05   5.96976750000000000E+05   5.95776250000000000E+05
             5.94561500000000000E+05
 ETA=   41   6.23868687500000000E+05   6.21916000000000000E+05   6.20019187500000000E+05   6.18240000000000000E+05   6.16688875000000000E+05
             6.15548687500000000E+05   6.14793500000000000E+05   6.14182125000000000E+05   6.13624875000000000E+05   6.13111687500000000E+05
             6.12642125000000000E+05   6.12214375000000000E+05   6.11825187500000000E+05   6.11471375000000000E+05   6.11150437500000000E+05
             6.10860625000000000E+05   6.10601062500000000E+05   6.10365000000000000E+05   6.10126250000000000E+05   6.09869000000000000E+05
             6.09625812500000000E+05   6.09411812500000000E+05   6.09215312500000000E+05   6.09026812500000000E+05   6.08841250000000000E+05
             6.08652375000000000E+05   6.08447687500000000E+05   6.08209312500000000E+05   6.07924812500000000E+05   6.07601312500000000E+05
             6.07262312500000000E+05   6.06932562500000000E+05   6.06629562500000000E+05   6.06357250000000000E+05   6.06106625000000000E+05
             6.05857562500000000E+05   6.05597000000000000E+05   6.05347625000000000E+05   6.05122312500000000E+05   6.04892937500000000E+05
             6.04640375000000000E+05   6.04359000000000000E+05   6.04052312500000000E+05   6.03718937500000000E+05   6.03347250000000000E+05
             6.02936375000000000E+05   6.02496375000000000E+05   6.02031625000000000E+05   6.01542562500000000E+05   6.01010250000000000E+05
             6.00326125000000000E+05   5.99367937500000000E+05   5.98247875000000000E+05   5.97082500000000000E+05   5.95890562500000000E+05
             5.94685812500000000E+05
 ETA=   42   6.23901312500000000E+05   6.21949000000000000E+05   6.20052750000000000E+05   6.18274375000000000E+05   6.16724250000000000E+05
             6.15584625000000000E+05   6.14830000000000000E+05   6.14219875000000000E+05   6.13663687500000000E+05   6.13151375000000000E+05
             6.12682562500000000E+05   6.12255250000000000E+05   6.11866062500000000E+05   6.11511937500000000E+05   6.11190250000000000E+05
             6.10899125000000000E+05   6.10637812500000000E+05   6.10399312500000000E+05   6.10157562500000000E+05   6.09896062500000000E+05
             6.09647937500000000E+05   6.09429125000000000E+05   6.09227812500000000E+05   6.09035062500000000E+05   6.08845812500000000E+05
             6.08653875000000000E+05   6.08447250000000000E+05   6.08208750000000000E+05   6.07926562500000000E+05   6.07607500000000000E+05
             6.07274937500000000E+05   6.06952437500000000E+05   6.06656062500000000E+05   6.06389187500000000E+05   6.06141812500000000E+05
             6.05894375000000000E+05   6.05634125000000000E+05   6.05385062500000000E+05   6.05160562500000000E+05   6.04932312500000000E+05
             6.04681812500000000E+05   6.04402875000000000E+05   6.04099062500000000E+05   6.03769437500000000E+05   6.03401750000000000E+05
             6.02996312500000000E+05   6.02561187500000000E+05   6.02101812500000000E+05   6.01618750000000000E+05   6.01093000000000000E+05
             6.00417062500000000E+05   5.99469125000000000E+05   5.98361062500000000E+05   5.97206812500000000E+05   5.96027125000000000E+05
             5.94836875000000000E+05
 ETA=   43   6.23932875000000000E+05   6.21981437500000000E+05   6.20086000000000000E+05   6.18308125000000000E+05   6.16758125000000000E+05
             6.15618875000000000E+05   6.14865000000000000E+05   6.14255062500000000E+05   6.13699250000000000E+05   6.13187500000000000E+05
             6.12719437500000000E+05   6.12292875000000000E+05   6.11903812500000000E+05   6.11549312500000000E+05   6.11226750000000000E+05
             6.10934437500000000E+05   6.10670875000000000E+05   6.10430625000000000E+05   6.10186062500000000E+05   6.09919875000000000E+05
             6.09666687500000000E+05   6.09442812500000000E+05   6.09236687500000000E+05   6.09039625000000000E+05   6.08846562500000000E+05
             6.08651375000000000E+05   6.08442625000000000E+05   6.08203625000000000E+05   6.07923312500000000E+05   6.07609187500000000E+05
             6.07283187500000000E+05   6.06968562500000000E+05   6.06679125000000000E+05   6.06418375000000000E+05   6.06174187500000000E+05
             6.05928312500000000E+05   6.05669125000000000E+05   6.05420875000000000E+05   6.05197562500000000E+05   6.04970937500000000E+05
             6.04722625000000000E+05   6.04446875000000000E+05   6.04146750000000000E+05   6.03821375000000000E+05   6.03458875000000000E+05
             6.03059562500000000E+05   6.02631187500000000E+05   6.02178875000000000E+05   6.01703187500000000E+05   6.01186062500000000E+05
             6.00520062500000000E+05   5.99586312500000000E+05   5.98492875000000000E+05   5.97354625000000000E+05   5.96190375000000000E+05
             5.95017500000000000E+05
 ETA=   44   6.23963125000000000E+05   6.22012875000000000E+05   6.20118250000000000E+05   6.18340250000000000E+05   6.16789750000000000E+05
             6.15650625000000000E+05   6.14896875000000000E+05   6.14287500000000000E+05   6.13732062500000000E+05   6.13220875000000000E+05
             6.12753062500000000E+05   6.12326437500000000E+05   6.11937562500000000E+05   6.11583000000000000E+05   6.11259875000000000E+05
             6.10966312500000000E+05   6.10701750000000000E+05   6.10459437500000000E+05   6.10212250000000000E+05   6.09942000000000000E+05
             6.09684000000000000E+05   6.09454937500000000E+05   6.09243937500000000E+05   6.09042375000000000E+05   6.08845125000000000E+05
             6.08646625000000000E+05   6.08435625000000000E+05   6.08196375000000000E+05   6.07917750000000000E+05   6.07607937500000000E+05
             6.07288562500000000E+05   6.06981625000000000E+05   6.06699125000000000E+05   6.06443187500000000E+05   6.06203500000000000E+05
             6.05959687500000000E+05   6.05701812500000000E+05   6.05454875000000000E+05   6.05233125000000000E+05   6.05009000000000000E+05
             6.04763562500000000E+05   6.04491625000000000E+05   6.04195812500000000E+05   6.03875625000000000E+05   6.03520062500000000E+05
             6.03127625000000000E+05   6.02707375000000000E+05   6.02263937500000000E+05   6.01798000000000000E+05   6.01290312500000000E+05
             6.00637125000000000E+05   5.99720625000000000E+05   5.98647500000000000E+05   5.97528687500000000E+05   5.96384812500000000E+05
             5.95233562500000000E+05
 ETA=   45   6.23992500000000000E+05   6.22043187500000000E+05   6.20149062500000000E+05   6.18370437500000000E+05   6.16818875000000000E+05
             6.15679250000000000E+05   6.14925500000000000E+05   6.14316375000000000E+05   6.13761312500000000E+05   6.13250562500000000E+05
             6.12783375000000000E+05   6.12357125000000000E+05   6.11968875000000000E+05   6.11614375000000000E+05   6.11291125000000000E+05
             6.10996812500000000E+05   6.10730937500000000E+05   6.10487062500000000E+05   6.10237312500000000E+05   6.09963562500000000E+05
             6.09701250000000000E+05   6.09467562500000000E+05   6.09251937500000000E+05   6.09045625000000000E+05   6.08844375000000000E+05
             6.08642312500000000E+05   6.08428875000000000E+05   6.08188812500000000E+05   6.07912000000000000E+05   6.07606250000000000E+05
             6.07292625000000000E+05   6.06992625000000000E+05   6.06716812500000000E+05   6.06466187500000000E+05   6.06229562500000000E+05
             6.05988312500000000E+05   6.05732187500000000E+05   6.05487250000000000E+05   6.05267937500000000E+05   6.05046437500000000E+05
             6.04805125000000000E+05   6.04537750000000000E+05   6.04247437500000000E+05   6.03933375000000000E+05   6.03585187500000000E+05
             6.03201187500000000E+05   6.02790812500000000E+05   6.02357750000000000E+05   6.01902812500000000E+05   6.01407000000000000E+05
             6.00769250000000000E+05   5.99873750000000000E+05   5.98824875000000000E+05   5.97731250000000000E+05   5.96612562500000000E+05
             5.95488250000000000E+05
 ETA=   46   6.24020062500000000E+05   6.22071812500000000E+05   6.20178125000000000E+05   6.18398125000000000E+05   6.16844937500000000E+05
             6.15704500000000000E+05   6.14950562500000000E+05   6.14341250000000000E+05   6.13786750000000000E+05   6.13276500000000000E+05
             6.12809875000000000E+05   6.12384625000000000E+05   6.11996937500000000E+05   6.11643062500000000E+05   6.11320187500000000E+05
             6.11026187500000000E+05   6.10760125000000000E+05   6.10515562500000000E+05   6.10264250000000000E+05   6.09987750000000000E+05
             6.09721500000000000E+05   6.09483437500000000E+05   6.09263500000000000E+05   6.09053000000000000E+05   6.08847437500000000E+05
             6.08641687500000000E+05   6.08425687500000000E+05   6.08184500000000000E+05   6.07908812500000000E+05   6.07606312500000000E+05
             6.07298312500000000E+05   6.07003937500000000E+05   6.06733937500000000E+05   6.06488000000000000E+05   6.06254562500000000E+05
             6.06015875000000000E+05   6.05762312500000000E+05   6.05520000000000000E+05   6.05304125000000000E+05   6.05086687500000000E+05
             6.04849625000000000E+05   6.04587500000000000E+05   6.04303687500000000E+05   6.03997000000000000E+05   6.03657437500000000E+05
             6.03283562500000000E+05   6.02884312500000000E+05   6.02463250000000000E+05   6.02021062500000000E+05   6.01539562500000000E+05
             6.00920312500000000E+05   6.00049937500000000E+05   5.99030312500000000E+05   5.97967125000000000E+05   5.96879500000000000E+05
             5.95787750000000000E+05
 ETA=   47   6.24046562500000000E+05   6.22099562500000000E+05   6.20205437500000000E+05   6.18423437500000000E+05   6.16868062500000000E+05
             6.15726312500000000E+05   6.14972187500000000E+05   6.14363125000000000E+05   6.13809000000000000E+05   6.13299562500000000E+05
             6.12834125000000000E+05   6.12410062500000000E+05   6.12023937500000000E+05   6.11671750000000000E+05   6.11350375000000000E+05
             6.11057437500000000E+05   6.10792187500000000E+05   6.10548000000000000E+05   6.10296000000000000E+05   6.10017687500000000E+05
             6.09748500000000000E+05   6.09506875000000000E+05   6.09282937500000000E+05   6.09068250000000000E+05   6.08858687500000000E+05
             6.08649125000000000E+05   6.08430312500000000E+05   6.08187625000000000E+05   6.07912312500000000E+05   6.07612625000000000E+05
             6.07309000000000000E+05   6.07019812500000000E+05   6.06754750000000000E+05   6.06512500000000000E+05   6.06282125000000000E+05
             6.06045750000000000E+05   6.05795312500000000E+05   6.05556875000000000E+05   6.05344750000000000E+05   6.05131937500000000E+05
             6.04900562500000000E+05   6.04644875000000000E+05   6.04368437500000000E+05   6.04069750000000000E+05   6.03739750000000000E+05
             6.03377437500000000E+05   6.02990875000000000E+05   6.02583625000000000E+05   6.02155750000000000E+05   6.01690500000000000E+05
             6.01091812500000000E+05   6.00251562500000000E+05   5.99266312500000000E+05   5.98238687500000000E+05   5.97187875000000000E+05
             5.96132562500000000E+05
 ETA=   48   6.24074375000000000E+05   6.22128250000000000E+05   6.20232687500000000E+05   6.18448062500000000E+05   6.16890000000000000E+05
             6.15746687500000000E+05   6.14992437500000000E+05   6.14384000000000000E+05   6.13830812500000000E+05   6.13322687500000000E+05
             6.12859062500000000E+05   6.12437750000000000E+05   6.12054687500000000E+05   6.11705562500000000E+05   6.11387125000000000E+05
             6.11097500000000000E+05   6.10834562500000000E+05   6.10591750000000000E+05   6.10340687500000000E+05   6.10062125000000000E+05
             6.09791062500000000E+05   6.09546562500000000E+05   6.09318750000000000E+05   6.09099812500000000E+05   6.08885562500000000E+05
             6.08672375000000000E+05   6.08450562500000000E+05   6.08206000000000000E+05   6.07930750000000000E+05   6.07633375000000000E+05
             6.07333437500000000E+05   6.07048625000000000E+05   6.06788125000000000E+05   6.06549937500000000E+05   6.06322375000000000E+05
             6.06089250000000000E+05   6.05843062500000000E+05   6.05609312500000000E+05   6.05402187500000000E+05   6.05194875000000000E+05
             6.04970187500000000E+05   6.04722375000000000E+05   6.04454812500000000E+05   6.04166750000000000E+05   6.03848687500000000E+05
             6.03500250000000000E+05   6.03129187500000000E+05   6.02738375000000000E+05   6.02328937500000000E+05   6.01883562500000000E+05
             6.01311250000000000E+05   6.00508125000000000E+05   5.99566750000000000E+05   5.98584812500000000E+05   5.97580500000000000E+05
             5.96571000000000000E+05
 ETA=   49   6.24111750000000000E+05   6.22164562500000000E+05   6.20265312500000000E+05   6.18475875000000000E+05   6.16913812500000000E+05
             6.15769250000000000E+05   6.15015437500000000E+05   6.14408125000000000E+05   6.13857625000000000E+05   6.13353562500000000E+05
             6.12894937500000000E+05   6.12479375000000000E+05   6.12102875000000000E+05   6.11760812500000000E+05   6.11449500000000000E+05
             6.11166250000000000E+05   6.10909062500000000E+05   6.10671062500000000E+05   6.10423312500000000E+05   6.10146312500000000E+05
             6.09874937500000000E+05   6.09628000000000000E+05   6.09396562500000000E+05   6.09173125000000000E+05   6.08954937500000000E+05
             6.08737250000000000E+05   6.08511312500000000E+05   6.08264562500000000E+05   6.07988500000000000E+05   6.07692312500000000E+05
             6.07395312500000000E+05   6.07114875000000000E+05   6.06858437500000000E+05   6.06623625000000000E+05   6.06399875000000000E+05
             6.06171437500000000E+05   6.05932000000000000E+05   6.05705687500000000E+05   6.05506750000000000E+05   6.05308625000000000E+05
             6.05094437500000000E+05   6.04858937500000000E+05   6.04604875000000000E+05   6.04331937500000000E+05   6.04031500000000000E+05
             6.03703312500000000E+05   6.03354562500000000E+05   6.02988875000000000E+05   6.02605750000000000E+05   6.02189875000000000E+05
             6.01656375000000000E+05   6.00908625000000000E+05   6.00032312500000000E+05   5.99118125000000000E+05   5.98182562500000000E+05
             5.97241812500000000E+05
 ETA=   50   6.24156562500000000E+05   6.22205125000000000E+05   6.20300375000000000E+05   6.18504437500000000E+05   6.16938187500000000E+05
             6.15793875000000000E+05   6.15043562500000000E+05   6.14441312500000000E+05   6.13897625000000000E+05   6.13402500000000000E+05
             6.12955000000000000E+05   6.12551500000000000E+05   6.12187687500000000E+05   6.11858750000000000E+05   6.11559875000000000E+05
             6.11288125000000000E+05   6.11041250000000000E+05   6.10811625000000000E+05   6.10571312500000000E+05   6.10299812500000000E+05
             6.10031625000000000E+05   6.09785125000000000E+05   6.09552062500000000E+05   6.09326000000000000E+05   6.09104312500000000E+05
             6.08883562500000000E+05   6.08654937500000000E+05   6.08405625000000000E+05   6.08128812500000000E+05   6.07833375000000000E+05
             6.07539187500000000E+05   6.07262625000000000E+05   6.07011000000000000E+05   6.06781125000000000E+05   6.06562750000000000E+05
             6.06340812500000000E+05   6.06110000000000000E+05   6.05894375000000000E+05   6.05706187500000000E+05   6.05520312500000000E+05
             6.05320625000000000E+05   6.05102125000000000E+05   6.04867000000000000E+05   6.04614937500000000E+05   6.04339187500000000E+05
             6.04039125000000000E+05   6.03721187500000000E+05   6.03388437500000000E+05   6.03041312500000000E+05   6.02665375000000000E+05
             6.02184375000000000E+05   6.01511125000000000E+05   6.00722000000000000E+05   5.99897625000000000E+05   5.99051250000000000E+05
             5.98198250000000000E+05
 ETA=   51   6.24199937500000000E+05   6.22244187500000000E+05   6.20335000000000000E+05   6.18534625000000000E+05   6.16967000000000000E+05
             6.15826750000000000E+05   6.15083187500000000E+05   6.14489750000000000E+05   6.13957312500000000E+05   6.13476000000000000E+05
             6.13044250000000000E+05   6.12658062500000000E+05   6.12312437500000000E+05   6.12001312500000000E+05   6.11719312500000000E+05
             6.11462687500000000E+05   6.11228437500000000E+05   6.11009312500000000E+05   6.10777750000000000E+05   6.10513562500000000E+05
             6.10249687500000000E+05   6.10004750000000000E+05   6.09772375000000000E+05   6.09546187500000000E+05   6.09324062500000000E+05
             6.09102437500000000E+05   6.08873437500000000E+05   6.08624625000000000E+05   6.08349500000000000E+05   6.08057187500000000E+05
             6.07767062500000000E+05   6.07494625000000000E+05   6.07247125000000000E+05   6.07022062500000000E+05   6.06810000000000000E+05
             6.06597250000000000E+05   6.06378937500000000E+05   6.06177187500000000E+05   6.06002812500000000E+05   6.05831312500000000E+05
             6.05647562500000000E+05   6.05447062500000000E+05   6.05232437500000000E+05   6.05002500000000000E+05   6.04752437500000000E+05
             6.04482250000000000E+05   6.04197687500000000E+05   6.03901562500000000E+05   6.03594437500000000E+05   6.03263500000000000E+05
             6.02841937500000000E+05   6.02253125000000000E+05   6.01562625000000000E+05   6.00838625000000000E+05   6.00078625000000000E+05
             5.99280250000000000E+05
 ETA=   52   6.24241375000000000E+05   6.22285000000000000E+05   6.20377312500000000E+05   6.18575750000000000E+05   6.17011937500000000E+05
             6.15879187500000000E+05   6.15146750000000000E+05   6.14564000000000000E+05   6.14046750000000000E+05   6.13583875000000000E+05
             6.13170812500000000E+05   6.12805687500000000E+05   6.12481687500000000E+05   6.12191625000000000E+05   6.11931000000000000E+05
             6.11689187500000000E+05   6.11462187500000000E+05   6.11256187500000000E+05   6.11026437500000000E+05   6.10766812500000000E+05
             6.10504125000000000E+05   6.10261687500000000E+05   6.10033000000000000E+05   6.09808937500000000E+05   6.09590750000000000E+05
             6.09373750000000000E+05   6.09148625000000000E+05   6.08908000000000000E+05   6.08644562500000000E+05   6.08363687500000000E+05
             6.08089375000000000E+05   6.07826437500000000E+05   6.07584812500000000E+05   6.07365062500000000E+05   6.07160125000000000E+05
             6.06962062500000000E+05   6.06762750000000000E+05   6.06577187500000000E+05   6.06419312500000000E+05   6.06262437500000000E+05
             6.06093750000000000E+05   6.05909562500000000E+05   6.05712312500000000E+05   6.05505125000000000E+05   6.05283500000000000E+05
             6.05043125000000000E+05   6.04794312500000000E+05   6.04542187500000000E+05   6.04279250000000000E+05   6.04002250000000000E+05
             6.03653312500000000E+05   6.03168687500000000E+05   6.02601250000000000E+05   6.01990125000000000E+05   6.01314062500000000E+05
             6.00500125000000000E+05
