file-created-by  Deltares, D-Flow FM Version 1.2.0.8703M, May 03 2018, 20:56:28
file-creation-date  2018-06-04, 13:53:42                                        
task      full-coupling
geometry  unstructured
horizontal-aggregation no
reference-time              '19920831000000'
hydrodynamic-start-time     '19920831001000'
hydrodynamic-stop-time      '19920831020000'
hydrodynamic-timestep       '00000000000500'
conversion-ref-time         '19920831000000'
conversion-start-time       '19920831001000'
conversion-stop-time        '19920831020000'
conversion-timestep         '00000000000500'
grid-cells-first-direction                    8355
grid-cells-second-direction                      1
number-hydrodynamic-segments-per-layer        8355
number-hydrodynamic-layers                       1
number-water-quality-segments-per-layer       8355
number-water-quality-layers                      1
number-horizontal-exchanges                  16069
number-vertical-exchanges                        0
hydrodynamic-file           'westerscheldt'
aggregation-file            none
boundaries-file             'westerscheldt.bnd'
waqgeom-file                'westerscheldt_waqgeom.nc'
grid-indices-file           'westerscheldt.bnd'
grid-coordinates-file       'westerscheldt_waqgeom.nc'
volumes-file                'westerscheldt.vol'
areas-file                  'westerscheldt.are'
flows-file                  'westerscheldt.flo'
pointers-file               'westerscheldt.poi'
lengths-file                'westerscheldt.len'
salinity-file               none
temperature-file            none
vert-diffusion-file         none
horizontal-surfaces-file    'westerscheldt.srf'
surfaces-file               'westerscheldt.srfold'
shear-stresses-file         'westerscheldt.tau'
attributes-file             'westerscheldt.atr'
hydrodynamic-layers
       1.000000
end-hydrodynamic-layers
water-quality-layers   
       1.000000
end-water-quality-layers
