  Using options from ini file : delwaq.ini
 Delft3D-WAQ version  4.5204 16-03-2009
 Only to be used by SOBEK licensee                          
 (c) Deltares
 Execution start: 2013/12/05 10:14:48 
 total real    array space:       1307
 total integer array space:       1953
 total CHARACTER*20  space:        201
1                    Fraction calculation Sobek-WQ           
                                                             

                                                             
                     T0: 2012.01.01 00:00:00  (scu=       1s)

                     Initialisation from system file completed.
 partit: noseg,nolay=           7           1 , nseghr=           7
 partit: npart=  1, assigning all segments to part "npart", none to other parts
 
 CONSTANT ON UNIT:        22, READING: delwaq-dispersi.wrk                                                                                                                                                                                                                                            
 SIMULATION TIME :  0D  0H  0M  0S ! 
 TIME IN FILE    :  0D  0H  0M  0S ! 
 CONSTANT ON UNIT:        26, READING: ..\work\Length.dat                                                                                                                                                                                                                                             
 SIMULATION TIME :  0D  0H  0M  0S ! 
 TIME IN FILE    :  0D  0H  0M  0S ! 
  Closure error correction disabled
 
 Initialising numerical options for method 15...18
 
 Preconditioner switch not found, using default
 switch = 3, corrections based on lower and upper 
 
 Maximum number of iterations not found, using default
 Maximum number of iterations set to :   100
 
 Relative tolerance not found, using default
 Relative tolerance set to :0.100E-06
 
 Scaling switch not found, using default
 switch = 1, scaling is switched on
 
 Iteration report switch found in input
 switch = 0, iteration report is switched off
 
 
 Extra functionality DLWQTR
 End extra functionality DLWQTR
1
                                             Fraction calculation Sobek-WQ           
                                                                                     
                                                                                     
                                             T0: 2012.01.01 00:00:00  (scu=       1s)
   0.00% Completed


 DUMP OF INTERMEDIATE RESULTS IN SELECTED SEGMENTS
  TIME =   0D  0H  0M  0S .
 
 TOTAL MASS IN SYSTEM 4.7999E+03 4.7999E+03 0.0000E+00 0.0000E+00
 CHANGES BY PROCESSES 0.0000E+00 0.0000E+00 0.0000E+00 0.0000E+00
 CHANGES BY LOADS     0.0000E+00 0.0000E+00 0.0000E+00 0.0000E+00
 BOUNDARY INFLOWS     0.0000E+00 0.0000E+00 0.0000E+00 0.0000E+00
 BOUNDARY OUTFLOWS    0.0000E+00 0.0000E+00 0.0000E+00 0.0000E+00
                      Check      Initial    Lateral in Boundary F 
                                            flow       low        
 CONCENTRATION                           
 SWT_Normal           1.0000E+00 1.0000E+00 0.0000E+00 0.0000E+00
 
   1.04% Completed


 DUMP OF INTERMEDIATE RESULTS IN SELECTED SEGMENTS
  TIME =   0D  1H  0M  0S .
 
 TOTAL MASS IN SYSTEM 4.9497E+03 9.8985E+02 1.1065E+03 2.8534E+03
 CHANGES BY PROCESSES 0.0000E+00 0.0000E+00 0.0000E+00 0.0000E+00
 CHANGES BY LOADS     0.0000E+00 0.0000E+00 0.0000E+00 0.0000E+00
 BOUNDARY INFLOWS     5.4000E+03 0.0000E+00 1.8000E+03 3.6000E+03
 BOUNDARY OUTFLOWS    5.2502E+03 3.8100E+03 6.9355E+02 7.4661E+02
                      Check      Initial    Lateral in Boundary F 
                                            flow       low        
 CONCENTRATION                           
 SWT_Normal           1.0242E+00 2.0482E-01 2.2895E-01 5.9043E-01
 
   2.08% Completed


 DUMP OF INTERMEDIATE RESULTS IN SELECTED SEGMENTS
  TIME =   0D  2H  0M  0S .
 
 TOTAL MASS IN SYSTEM 4.9912E+03 9.7469E+01 1.2526E+03 3.6412E+03
 CHANGES BY PROCESSES 0.0000E+00 0.0000E+00 0.0000E+00 0.0000E+00
 CHANGES BY LOADS     0.0000E+00 0.0000E+00 0.0000E+00 0.0000E+00
 BOUNDARY INFLOWS     5.4000E+03 0.0000E+00 1.8000E+03 3.6000E+03
 BOUNDARY OUTFLOWS    5.3585E+03 8.9238E+02 1.6539E+03 2.8122E+03
                      Check      Initial    Lateral in Boundary F 
                                            flow       low        
 CONCENTRATION                           
 SWT_Normal           1.0328E+00 2.0169E-02 2.5918E-01 7.5344E-01
 
   3.12% Completed


 DUMP OF INTERMEDIATE RESULTS IN SELECTED SEGMENTS
  TIME =   0D  3H  0M  0S .
 
 TOTAL MASS IN SYSTEM 4.9941E+03 6.2708E+00 1.2602E+03 3.7276E+03
 CHANGES BY PROCESSES 0.0000E+00 0.0000E+00 0.0000E+00 0.0000E+00
 CHANGES BY LOADS     0.0000E+00 0.0000E+00 0.0000E+00 0.0000E+00
 BOUNDARY INFLOWS     5.4000E+03 0.0000E+00 1.8000E+03 3.6000E+03
 BOUNDARY OUTFLOWS    5.3971E+03 9.1199E+01 1.7923E+03 3.5136E+03
                      Check      Initial    Lateral in Boundary F 
                                            flow       low        
 CONCENTRATION                           
 SWT_Normal           1.0334E+00 1.2976E-03 2.6077E-01 7.7132E-01
 
1
                                             Fraction calculation Sobek-WQ           
                                                                                     
                                                                                     
                                             T0: 2012.01.01 00:00:00  (scu=       1s)
   4.17% Completed


 DUMP OF INTERMEDIATE RESULTS IN SELECTED SEGMENTS
  TIME =   0D  4H  0M  0S .
 
 TOTAL MASS IN SYSTEM 4.9942E+03 3.1660E-01 1.2605E+03 3.7334E+03
 CHANGES BY PROCESSES 0.0000E+00 0.0000E+00 0.0000E+00 0.0000E+00
 CHANGES BY LOADS     0.0000E+00 0.0000E+00 0.0000E+00 0.0000E+00
 BOUNDARY INFLOWS     5.4000E+03 0.0000E+00 1.8000E+03 3.6000E+03
 BOUNDARY OUTFLOWS    5.3999E+03 5.9542E+00 1.7997E+03 3.5942E+03
                      Check      Initial    Lateral in Boundary F 
                                            flow       low        
 CONCENTRATION                           
 SWT_Normal           1.0334E+00 6.5512E-05 2.6082E-01 7.7252E-01
 
   5.21% Completed


 DUMP OF INTERMEDIATE RESULTS IN SELECTED SEGMENTS
  TIME =   0D  5H  0M  0S .
 
 TOTAL MASS IN SYSTEM 4.9942E+03 1.3871E-02 1.2605E+03 3.7337E+03
 CHANGES BY PROCESSES 0.0000E+00 0.0000E+00 0.0000E+00 0.0000E+00
 CHANGES BY LOADS     0.0000E+00 0.0000E+00 0.0000E+00 0.0000E+00
 BOUNDARY INFLOWS     5.4000E+03 0.0000E+00 1.8000E+03 3.6000E+03
 BOUNDARY OUTFLOWS    5.4000E+03 3.0272E-01 1.8000E+03 3.5997E+03
                      Check      Initial    Lateral in Boundary F 
                                            flow       low        
 CONCENTRATION                           
 SWT_Normal           1.0334E+00 2.8703E-06 2.6083E-01 7.7258E-01
 
   6.25% Completed


 DUMP OF INTERMEDIATE RESULTS IN SELECTED SEGMENTS
  TIME =   0D  6H  0M  0S .
 
 TOTAL MASS IN SYSTEM 4.9942E+03 5.5606E-04 1.2605E+03 3.7337E+03
 CHANGES BY PROCESSES 0.0000E+00 0.0000E+00 0.0000E+00 0.0000E+00
 CHANGES BY LOADS     0.0000E+00 0.0000E+00 0.0000E+00 0.0000E+00
 BOUNDARY INFLOWS     5.4000E+03 0.0000E+00 1.8000E+03 3.6000E+03
 BOUNDARY OUTFLOWS    5.4000E+03 1.3311E-02 1.8000E+03 3.6000E+03
                      Check      Initial    Lateral in Boundary F 
                                            flow       low        
 CONCENTRATION                           
 SWT_Normal           1.0334E+00 1.1506E-07 2.6083E-01 7.7259E-01
 
   7.29% Completed


 DUMP OF INTERMEDIATE RESULTS IN SELECTED SEGMENTS
  TIME =   0D  7H  0M  0S .
 
 TOTAL MASS IN SYSTEM 4.9942E+03 2.0306E-05 1.2605E+03 3.7337E+03
 CHANGES BY PROCESSES 0.0000E+00 0.0000E+00 0.0000E+00 0.0000E+00
 CHANGES BY LOADS     0.0000E+00 0.0000E+00 0.0000E+00 0.0000E+00
 BOUNDARY INFLOWS     5.4000E+03 0.0000E+00 1.8000E+03 3.6000E+03
 BOUNDARY OUTFLOWS    5.4000E+03 5.3155E-04 1.8000E+03 3.6000E+03
                      Check      Initial    Lateral in Boundary F 
                                            flow       low        
 CONCENTRATION                           
 SWT_Normal           1.0334E+00 4.2017E-09 2.6083E-01 7.7259E-01
 
1
                                             Fraction calculation Sobek-WQ           
                                                                                     
                                                                                     
                                             T0: 2012.01.01 00:00:00  (scu=       1s)
   8.33% Completed


 DUMP OF INTERMEDIATE RESULTS IN SELECTED SEGMENTS
  TIME =   0D  8H  0M  0S .
 
 TOTAL MASS IN SYSTEM 4.9942E+03 6.7077E-07 1.2605E+03 3.7337E+03
 CHANGES BY PROCESSES 0.0000E+00 0.0000E+00 0.0000E+00 0.0000E+00
 CHANGES BY LOADS     0.0000E+00 0.0000E+00 0.0000E+00 0.0000E+00
 BOUNDARY INFLOWS     5.4000E+03 0.0000E+00 1.8000E+03 3.6000E+03
 BOUNDARY OUTFLOWS    5.4000E+03 1.9635E-05 1.8000E+03 3.6000E+03
                      Check      Initial    Lateral in Boundary F 
                                            flow       low        
 CONCENTRATION                           
 SWT_Normal           1.0334E+00 1.3880E-10 2.6083E-01 7.7259E-01
 
   9.38% Completed


 DUMP OF INTERMEDIATE RESULTS IN SELECTED SEGMENTS
  TIME =   0D  9H  0M  0S .
 
 TOTAL MASS IN SYSTEM 4.9942E+03 1.9831E-08 1.2605E+03 3.7337E+03
 CHANGES BY PROCESSES 0.0000E+00 0.0000E+00 0.0000E+00 0.0000E+00
 CHANGES BY LOADS     0.0000E+00 0.0000E+00 0.0000E+00 0.0000E+00
 BOUNDARY INFLOWS     5.4000E+03 0.0000E+00 1.8000E+03 3.6000E+03
 BOUNDARY OUTFLOWS    5.4000E+03 6.5093E-07 1.8000E+03 3.6000E+03
                      Check      Initial    Lateral in Boundary F 
                                            flow       low        
 CONCENTRATION                           
 SWT_Normal           1.0334E+00 4.1034E-12 2.6083E-01 7.7259E-01
 
  10.42% Completed


 DUMP OF INTERMEDIATE RESULTS IN SELECTED SEGMENTS
  TIME =   0D 10H  0M  0S .
 
 TOTAL MASS IN SYSTEM 4.9942E+03 5.4822E-10 1.2605E+03 3.7337E+03
 CHANGES BY PROCESSES 0.0000E+00 0.0000E+00 0.0000E+00 0.0000E+00
 CHANGES BY LOADS     0.0000E+00 0.0000E+00 0.0000E+00 0.0000E+00
 BOUNDARY INFLOWS     5.4000E+03 0.0000E+00 1.8000E+03 3.6000E+03
 BOUNDARY OUTFLOWS    5.4000E+03 1.9282E-08 1.8000E+03 3.6000E+03
                      Check      Initial    Lateral in Boundary F 
                                            flow       low        
 CONCENTRATION                           
 SWT_Normal           1.0334E+00 1.1344E-13 2.6083E-01 7.7259E-01
 
  11.46% Completed


 DUMP OF INTERMEDIATE RESULTS IN SELECTED SEGMENTS
  TIME =   0D 11H  0M  0S .
 
 TOTAL MASS IN SYSTEM 4.9942E+03 1.4862E-11 1.2605E+03 3.7337E+03
 CHANGES BY PROCESSES 0.0000E+00 0.0000E+00 0.0000E+00 0.0000E+00
 CHANGES BY LOADS     0.0000E+00 0.0000E+00 0.0000E+00 0.0000E+00
 BOUNDARY INFLOWS     5.4000E+03 0.0000E+00 1.8000E+03 3.6000E+03
 BOUNDARY OUTFLOWS    5.4000E+03 5.3336E-10 1.8000E+03 3.6000E+03
                      Check      Initial    Lateral in Boundary F 
                                            flow       low        
 CONCENTRATION                           
 SWT_Normal           1.0334E+00 3.0752E-15 2.6083E-01 7.7259E-01
 
1
                                             Fraction calculation Sobek-WQ           
                                                                                     
                                                                                     
                                             T0: 2012.01.01 00:00:00  (scu=       1s)
  12.50% Completed


 DUMP OF INTERMEDIATE RESULTS IN SELECTED SEGMENTS
  TIME =   0D 12H  0M  0S .
 
 TOTAL MASS IN SYSTEM 4.9942E+03 4.1098E-13 1.2605E+03 3.7337E+03
 CHANGES BY PROCESSES 0.0000E+00 0.0000E+00 0.0000E+00 0.0000E+00
 CHANGES BY LOADS     0.0000E+00 0.0000E+00 0.0000E+00 0.0000E+00
 BOUNDARY INFLOWS     5.4000E+03 0.0000E+00 1.8000E+03 3.6000E+03
 BOUNDARY OUTFLOWS    5.4000E+03 1.4451E-11 1.8000E+03 3.6000E+03
                      Check      Initial    Lateral in Boundary F 
                                            flow       low        
 CONCENTRATION                           
 SWT_Normal           1.0334E+00 8.5040E-17 2.6083E-01 7.7259E-01
 
  13.54% Completed


 DUMP OF INTERMEDIATE RESULTS IN SELECTED SEGMENTS
  TIME =   0D 13H  0M  0S .
 
 TOTAL MASS IN SYSTEM 4.9942E+03 1.1901E-14 1.2605E+03 3.7337E+03
 CHANGES BY PROCESSES 0.0000E+00 0.0000E+00 0.0000E+00 0.0000E+00
 CHANGES BY LOADS     0.0000E+00 0.0000E+00 0.0000E+00 0.0000E+00
 BOUNDARY INFLOWS     5.4000E+03 0.0000E+00 1.8000E+03 3.6000E+03
 BOUNDARY OUTFLOWS    5.4000E+03 3.9908E-13 1.8000E+03 3.6000E+03
                      Check      Initial    Lateral in Boundary F 
                                            flow       low        
 CONCENTRATION                           
 SWT_Normal           1.0334E+00 2.4625E-18 2.6083E-01 7.7259E-01
 
  14.58% Completed


 DUMP OF INTERMEDIATE RESULTS IN SELECTED SEGMENTS
  TIME =   0D 14H  0M  0S .
 
 TOTAL MASS IN SYSTEM 4.9942E+03 3.6436E-16 1.2605E+03 3.7337E+03
 CHANGES BY PROCESSES 0.0000E+00 0.0000E+00 0.0000E+00 0.0000E+00
 CHANGES BY LOADS     0.0000E+00 0.0000E+00 0.0000E+00 0.0000E+00
 BOUNDARY INFLOWS     5.4000E+03 0.0000E+00 1.8000E+03 3.6000E+03
 BOUNDARY OUTFLOWS    5.4000E+03 1.1536E-14 1.8000E+03 3.6000E+03
                      Check      Initial    Lateral in Boundary F 
                                            flow       low        
 CONCENTRATION                           
 SWT_Normal           1.0334E+00 7.5395E-20 2.6083E-01 7.7259E-01
 
  15.62% Completed


 DUMP OF INTERMEDIATE RESULTS IN SELECTED SEGMENTS
  TIME =   0D 15H  0M  0S .
 
 TOTAL MASS IN SYSTEM 4.9942E+03 1.1740E-17 1.2605E+03 3.7337E+03
 CHANGES BY PROCESSES 0.0000E+00 0.0000E+00 0.0000E+00 0.0000E+00
 CHANGES BY LOADS     0.0000E+00 0.0000E+00 0.0000E+00 0.0000E+00
 BOUNDARY INFLOWS     5.4000E+03 0.0000E+00 1.8000E+03 3.6000E+03
 BOUNDARY OUTFLOWS    5.4000E+03 3.5262E-16 1.8000E+03 3.6000E+03
                      Check      Initial    Lateral in Boundary F 
                                            flow       low        
 CONCENTRATION                           
 SWT_Normal           1.0334E+00 2.4294E-21 2.6083E-01 7.7259E-01
 
1
                                             Fraction calculation Sobek-WQ           
                                                                                     
                                                                                     
                                             T0: 2012.01.01 00:00:00  (scu=       1s)
  16.67% Completed


 DUMP OF INTERMEDIATE RESULTS IN SELECTED SEGMENTS
  TIME =   0D 16H  0M  0S .
 
 TOTAL MASS IN SYSTEM 4.9942E+03 3.9338E-19 1.2605E+03 3.7337E+03
 CHANGES BY PROCESSES 0.0000E+00 0.0000E+00 0.0000E+00 0.0000E+00
 CHANGES BY LOADS     0.0000E+00 0.0000E+00 0.0000E+00 0.0000E+00
 BOUNDARY INFLOWS     5.4000E+03 0.0000E+00 1.8000E+03 3.6000E+03
 BOUNDARY OUTFLOWS    5.4000E+03 1.1347E-17 1.8000E+03 3.6000E+03
                      Check      Initial    Lateral in Boundary F 
                                            flow       low        
 CONCENTRATION                           
 SWT_Normal           1.0334E+00 8.1400E-23 2.6083E-01 7.7259E-01
 
  17.71% Completed


 DUMP OF INTERMEDIATE RESULTS IN SELECTED SEGMENTS
  TIME =   0D 17H  0M  0S .
 
 TOTAL MASS IN SYSTEM 4.9942E+03 1.3534E-20 1.2605E+03 3.7337E+03
 CHANGES BY PROCESSES 0.0000E+00 0.0000E+00 0.0000E+00 0.0000E+00
 CHANGES BY LOADS     0.0000E+00 0.0000E+00 0.0000E+00 0.0000E+00
 BOUNDARY INFLOWS     5.4000E+03 0.0000E+00 1.8000E+03 3.6000E+03
 BOUNDARY OUTFLOWS    5.4000E+03 3.7985E-19 1.8000E+03 3.6000E+03
                      Check      Initial    Lateral in Boundary F 
                                            flow       low        
 CONCENTRATION                           
 SWT_Normal           1.0334E+00 2.8005E-24 2.6083E-01 7.7259E-01
 
  18.75% Completed


 DUMP OF INTERMEDIATE RESULTS IN SELECTED SEGMENTS
  TIME =   0D 18H  0M  0S .
 
 TOTAL MASS IN SYSTEM 4.9942E+03 4.7332E-22 1.2605E+03 3.7337E+03
 CHANGES BY PROCESSES 0.0000E+00 0.0000E+00 0.0000E+00 0.0000E+00
 CHANGES BY LOADS     0.0000E+00 0.0000E+00 0.0000E+00 0.0000E+00
 BOUNDARY INFLOWS     5.4000E+03 0.0000E+00 1.8000E+03 3.6000E+03
 BOUNDARY OUTFLOWS    5.4000E+03 1.3060E-20 1.8000E+03 3.6000E+03
                      Check      Initial    Lateral in Boundary F 
                                            flow       low        
 CONCENTRATION                           
 SWT_Normal           1.0334E+00 9.7941E-26 2.6083E-01 7.7259E-01
 
  19.79% Completed


 DUMP OF INTERMEDIATE RESULTS IN SELECTED SEGMENTS
  TIME =   0D 19H  0M  0S .
 
 TOTAL MASS IN SYSTEM 4.9942E+03 0.0000E+00 1.2605E+03 3.7337E+03
 CHANGES BY PROCESSES 0.0000E+00 0.0000E+00 0.0000E+00 0.0000E+00
 CHANGES BY LOADS     0.0000E+00 0.0000E+00 0.0000E+00 0.0000E+00
 BOUNDARY INFLOWS     5.4000E+03 0.0000E+00 1.8000E+03 3.6000E+03
 BOUNDARY OUTFLOWS    5.4000E+03 3.1816E-22 1.8000E+03 3.6000E+03
                      Check      Initial    Lateral in Boundary F 
                                            flow       low        
 CONCENTRATION                           
 SWT_Normal           1.0334E+00 0.0000E+00 2.6083E-01 7.7259E-01
 
1
                                             Fraction calculation Sobek-WQ           
                                                                                     
                                                                                     
                                             T0: 2012.01.01 00:00:00  (scu=       1s)
  20.83% Completed


 DUMP OF INTERMEDIATE RESULTS IN SELECTED SEGMENTS
  TIME =   0D 20H  0M  0S .
 
 TOTAL MASS IN SYSTEM 4.9942E+03 0.0000E+00 1.2605E+03 3.7337E+03
 CHANGES BY PROCESSES 0.0000E+00 0.0000E+00 0.0000E+00 0.0000E+00
 CHANGES BY LOADS     0.0000E+00 0.0000E+00 0.0000E+00 0.0000E+00
 BOUNDARY INFLOWS     5.4000E+03 0.0000E+00 1.8000E+03 3.6000E+03
 BOUNDARY OUTFLOWS    5.4000E+03 0.0000E+00 1.8000E+03 3.6000E+03
                      Check      Initial    Lateral in Boundary F 
                                            flow       low        
 CONCENTRATION                           
 SWT_Normal           1.0334E+00 0.0000E+00 2.6083E-01 7.7259E-01
 
  21.88% Completed


 DUMP OF INTERMEDIATE RESULTS IN SELECTED SEGMENTS
  TIME =   0D 21H  0M  0S .
 
 TOTAL MASS IN SYSTEM 4.9942E+03 0.0000E+00 1.2605E+03 3.7337E+03
 CHANGES BY PROCESSES 0.0000E+00 0.0000E+00 0.0000E+00 0.0000E+00
 CHANGES BY LOADS     0.0000E+00 0.0000E+00 0.0000E+00 0.0000E+00
 BOUNDARY INFLOWS     5.4000E+03 0.0000E+00 1.8000E+03 3.6000E+03
 BOUNDARY OUTFLOWS    5.4000E+03 0.0000E+00 1.8000E+03 3.6000E+03
                      Check      Initial    Lateral in Boundary F 
                                            flow       low        
 CONCENTRATION                           
 SWT_Normal           1.0334E+00 0.0000E+00 2.6083E-01 7.7259E-01
 
  22.92% Completed


 DUMP OF INTERMEDIATE RESULTS IN SELECTED SEGMENTS
  TIME =   0D 22H  0M  0S .
 
 TOTAL MASS IN SYSTEM 4.9942E+03 0.0000E+00 1.2605E+03 3.7337E+03
 CHANGES BY PROCESSES 0.0000E+00 0.0000E+00 0.0000E+00 0.0000E+00
 CHANGES BY LOADS     0.0000E+00 0.0000E+00 0.0000E+00 0.0000E+00
 BOUNDARY INFLOWS     5.4000E+03 0.0000E+00 1.8000E+03 3.6000E+03
 BOUNDARY OUTFLOWS    5.4000E+03 0.0000E+00 1.8000E+03 3.6000E+03
                      Check      Initial    Lateral in Boundary F 
                                            flow       low        
 CONCENTRATION                           
 SWT_Normal           1.0334E+00 0.0000E+00 2.6083E-01 7.7259E-01
 
  23.96% Completed


 DUMP OF INTERMEDIATE RESULTS IN SELECTED SEGMENTS
  TIME =   0D 23H  0M  0S .
 
 TOTAL MASS IN SYSTEM 4.9942E+03 0.0000E+00 1.2605E+03 3.7337E+03
 CHANGES BY PROCESSES 0.0000E+00 0.0000E+00 0.0000E+00 0.0000E+00
 CHANGES BY LOADS     0.0000E+00 0.0000E+00 0.0000E+00 0.0000E+00
 BOUNDARY INFLOWS     5.4000E+03 0.0000E+00 1.8000E+03 3.6000E+03
 BOUNDARY OUTFLOWS    5.4000E+03 0.0000E+00 1.8000E+03 3.6000E+03
                      Check      Initial    Lateral in Boundary F 
                                            flow       low        
 CONCENTRATION                           
 SWT_Normal           1.0334E+00 0.0000E+00 2.6083E-01 7.7259E-01
 
1
                                             Fraction calculation Sobek-WQ           
                                                                                     
                                                                                     
                                             T0: 2012.01.01 00:00:00  (scu=       1s)
  25.00% Completed


 DUMP OF INTERMEDIATE RESULTS IN SELECTED SEGMENTS
  TIME =   1D  0H  0M  0S .
 
 TOTAL MASS IN SYSTEM 4.9942E+03 0.0000E+00 1.2605E+03 3.7337E+03
 CHANGES BY PROCESSES 0.0000E+00 0.0000E+00 0.0000E+00 0.0000E+00
 CHANGES BY LOADS     0.0000E+00 0.0000E+00 0.0000E+00 0.0000E+00
 BOUNDARY INFLOWS     5.4000E+03 0.0000E+00 1.8000E+03 3.6000E+03
 BOUNDARY OUTFLOWS    5.4000E+03 0.0000E+00 1.8000E+03 3.6000E+03
                      Check      Initial    Lateral in Boundary F 
                                            flow       low        
 CONCENTRATION                           
 SWT_Normal           1.0334E+00 0.0000E+00 2.6083E-01 7.7259E-01
 
  26.04% Completed


 DUMP OF INTERMEDIATE RESULTS IN SELECTED SEGMENTS
  TIME =   1D  1H  0M  0S .
 
 TOTAL MASS IN SYSTEM 4.9942E+03 0.0000E+00 1.2605E+03 3.7337E+03
 CHANGES BY PROCESSES 0.0000E+00 0.0000E+00 0.0000E+00 0.0000E+00
 CHANGES BY LOADS     0.0000E+00 0.0000E+00 0.0000E+00 0.0000E+00
 BOUNDARY INFLOWS     5.4000E+03 0.0000E+00 1.8000E+03 3.6000E+03
 BOUNDARY OUTFLOWS    5.4000E+03 0.0000E+00 1.8000E+03 3.6000E+03
                      Check      Initial    Lateral in Boundary F 
                                            flow       low        
 CONCENTRATION                           
 SWT_Normal           1.0334E+00 0.0000E+00 2.6083E-01 7.7259E-01
 
  27.08% Completed


 DUMP OF INTERMEDIATE RESULTS IN SELECTED SEGMENTS
  TIME =   1D  2H  0M  0S .
 
 TOTAL MASS IN SYSTEM 4.9942E+03 0.0000E+00 1.2605E+03 3.7337E+03
 CHANGES BY PROCESSES 0.0000E+00 0.0000E+00 0.0000E+00 0.0000E+00
 CHANGES BY LOADS     0.0000E+00 0.0000E+00 0.0000E+00 0.0000E+00
 BOUNDARY INFLOWS     5.4000E+03 0.0000E+00 1.8000E+03 3.6000E+03
 BOUNDARY OUTFLOWS    5.4000E+03 0.0000E+00 1.8000E+03 3.6000E+03
                      Check      Initial    Lateral in Boundary F 
                                            flow       low        
 CONCENTRATION                           
 SWT_Normal           1.0334E+00 0.0000E+00 2.6083E-01 7.7259E-01
 
  28.12% Completed


 DUMP OF INTERMEDIATE RESULTS IN SELECTED SEGMENTS
  TIME =   1D  3H  0M  0S .
 
 TOTAL MASS IN SYSTEM 4.9942E+03 0.0000E+00 1.2605E+03 3.7337E+03
 CHANGES BY PROCESSES 0.0000E+00 0.0000E+00 0.0000E+00 0.0000E+00
 CHANGES BY LOADS     0.0000E+00 0.0000E+00 0.0000E+00 0.0000E+00
 BOUNDARY INFLOWS     5.4000E+03 0.0000E+00 1.8000E+03 3.6000E+03
 BOUNDARY OUTFLOWS    5.4000E+03 0.0000E+00 1.8000E+03 3.6000E+03
                      Check      Initial    Lateral in Boundary F 
                                            flow       low        
 CONCENTRATION                           
 SWT_Normal           1.0334E+00 0.0000E+00 2.6083E-01 7.7259E-01
 
1
                                             Fraction calculation Sobek-WQ           
                                                                                     
                                                                                     
                                             T0: 2012.01.01 00:00:00  (scu=       1s)
  29.17% Completed


 DUMP OF INTERMEDIATE RESULTS IN SELECTED SEGMENTS
  TIME =   1D  4H  0M  0S .
 
 TOTAL MASS IN SYSTEM 4.9942E+03 0.0000E+00 1.2605E+03 3.7337E+03
 CHANGES BY PROCESSES 0.0000E+00 0.0000E+00 0.0000E+00 0.0000E+00
 CHANGES BY LOADS     0.0000E+00 0.0000E+00 0.0000E+00 0.0000E+00
 BOUNDARY INFLOWS     5.4000E+03 0.0000E+00 1.8000E+03 3.6000E+03
 BOUNDARY OUTFLOWS    5.4000E+03 0.0000E+00 1.8000E+03 3.6000E+03
                      Check      Initial    Lateral in Boundary F 
                                            flow       low        
 CONCENTRATION                           
 SWT_Normal           1.0334E+00 0.0000E+00 2.6083E-01 7.7259E-01
 
  30.21% Completed


 DUMP OF INTERMEDIATE RESULTS IN SELECTED SEGMENTS
  TIME =   1D  5H  0M  0S .
 
 TOTAL MASS IN SYSTEM 4.9942E+03 0.0000E+00 1.2605E+03 3.7337E+03
 CHANGES BY PROCESSES 0.0000E+00 0.0000E+00 0.0000E+00 0.0000E+00
 CHANGES BY LOADS     0.0000E+00 0.0000E+00 0.0000E+00 0.0000E+00
 BOUNDARY INFLOWS     5.4000E+03 0.0000E+00 1.8000E+03 3.6000E+03
 BOUNDARY OUTFLOWS    5.4000E+03 0.0000E+00 1.8000E+03 3.6000E+03
                      Check      Initial    Lateral in Boundary F 
                                            flow       low        
 CONCENTRATION                           
 SWT_Normal           1.0334E+00 0.0000E+00 2.6083E-01 7.7259E-01
 
  31.25% Completed


 DUMP OF INTERMEDIATE RESULTS IN SELECTED SEGMENTS
  TIME =   1D  6H  0M  0S .
 
 TOTAL MASS IN SYSTEM 4.9942E+03 0.0000E+00 1.2605E+03 3.7337E+03
 CHANGES BY PROCESSES 0.0000E+00 0.0000E+00 0.0000E+00 0.0000E+00
 CHANGES BY LOADS     0.0000E+00 0.0000E+00 0.0000E+00 0.0000E+00
 BOUNDARY INFLOWS     5.4000E+03 0.0000E+00 1.8000E+03 3.6000E+03
 BOUNDARY OUTFLOWS    5.4000E+03 0.0000E+00 1.8000E+03 3.6000E+03
                      Check      Initial    Lateral in Boundary F 
                                            flow       low        
 CONCENTRATION                           
 SWT_Normal           1.0334E+00 0.0000E+00 2.6083E-01 7.7259E-01
 
  32.29% Completed


 DUMP OF INTERMEDIATE RESULTS IN SELECTED SEGMENTS
  TIME =   1D  7H  0M  0S .
 
 TOTAL MASS IN SYSTEM 4.9942E+03 0.0000E+00 1.2605E+03 3.7337E+03
 CHANGES BY PROCESSES 0.0000E+00 0.0000E+00 0.0000E+00 0.0000E+00
 CHANGES BY LOADS     0.0000E+00 0.0000E+00 0.0000E+00 0.0000E+00
 BOUNDARY INFLOWS     5.4000E+03 0.0000E+00 1.8000E+03 3.6000E+03
 BOUNDARY OUTFLOWS    5.4000E+03 0.0000E+00 1.8000E+03 3.6000E+03
                      Check      Initial    Lateral in Boundary F 
                                            flow       low        
 CONCENTRATION                           
 SWT_Normal           1.0334E+00 0.0000E+00 2.6083E-01 7.7259E-01
 
1
                                             Fraction calculation Sobek-WQ           
                                                                                     
                                                                                     
                                             T0: 2012.01.01 00:00:00  (scu=       1s)
  33.33% Completed


 DUMP OF INTERMEDIATE RESULTS IN SELECTED SEGMENTS
  TIME =   1D  8H  0M  0S .
 
 TOTAL MASS IN SYSTEM 4.9942E+03 0.0000E+00 1.2605E+03 3.7337E+03
 CHANGES BY PROCESSES 0.0000E+00 0.0000E+00 0.0000E+00 0.0000E+00
 CHANGES BY LOADS     0.0000E+00 0.0000E+00 0.0000E+00 0.0000E+00
 BOUNDARY INFLOWS     5.4000E+03 0.0000E+00 1.8000E+03 3.6000E+03
 BOUNDARY OUTFLOWS    5.4000E+03 0.0000E+00 1.8000E+03 3.6000E+03
                      Check      Initial    Lateral in Boundary F 
                                            flow       low        
 CONCENTRATION                           
 SWT_Normal           1.0334E+00 0.0000E+00 2.6083E-01 7.7259E-01
 
  34.38% Completed


 DUMP OF INTERMEDIATE RESULTS IN SELECTED SEGMENTS
  TIME =   1D  9H  0M  0S .
 
 TOTAL MASS IN SYSTEM 4.9942E+03 0.0000E+00 1.2605E+03 3.7337E+03
 CHANGES BY PROCESSES 0.0000E+00 0.0000E+00 0.0000E+00 0.0000E+00
 CHANGES BY LOADS     0.0000E+00 0.0000E+00 0.0000E+00 0.0000E+00
 BOUNDARY INFLOWS     5.4000E+03 0.0000E+00 1.8000E+03 3.6000E+03
 BOUNDARY OUTFLOWS    5.4000E+03 0.0000E+00 1.8000E+03 3.6000E+03
                      Check      Initial    Lateral in Boundary F 
                                            flow       low        
 CONCENTRATION                           
 SWT_Normal           1.0334E+00 0.0000E+00 2.6083E-01 7.7259E-01
 
  35.42% Completed


 DUMP OF INTERMEDIATE RESULTS IN SELECTED SEGMENTS
  TIME =   1D 10H  0M  0S .
 
 TOTAL MASS IN SYSTEM 4.9942E+03 0.0000E+00 1.2605E+03 3.7337E+03
 CHANGES BY PROCESSES 0.0000E+00 0.0000E+00 0.0000E+00 0.0000E+00
 CHANGES BY LOADS     0.0000E+00 0.0000E+00 0.0000E+00 0.0000E+00
 BOUNDARY INFLOWS     5.4000E+03 0.0000E+00 1.8000E+03 3.6000E+03
 BOUNDARY OUTFLOWS    5.4000E+03 0.0000E+00 1.8000E+03 3.6000E+03
                      Check      Initial    Lateral in Boundary F 
                                            flow       low        
 CONCENTRATION                           
 SWT_Normal           1.0334E+00 0.0000E+00 2.6083E-01 7.7259E-01
 
  36.46% Completed


 DUMP OF INTERMEDIATE RESULTS IN SELECTED SEGMENTS
  TIME =   1D 11H  0M  0S .
 
 TOTAL MASS IN SYSTEM 4.9942E+03 0.0000E+00 1.2605E+03 3.7337E+03
 CHANGES BY PROCESSES 0.0000E+00 0.0000E+00 0.0000E+00 0.0000E+00
 CHANGES BY LOADS     0.0000E+00 0.0000E+00 0.0000E+00 0.0000E+00
 BOUNDARY INFLOWS     5.4000E+03 0.0000E+00 1.8000E+03 3.6000E+03
 BOUNDARY OUTFLOWS    5.4000E+03 0.0000E+00 1.8000E+03 3.6000E+03
                      Check      Initial    Lateral in Boundary F 
                                            flow       low        
 CONCENTRATION                           
 SWT_Normal           1.0334E+00 0.0000E+00 2.6083E-01 7.7259E-01
 
1
                                             Fraction calculation Sobek-WQ           
                                                                                     
                                                                                     
                                             T0: 2012.01.01 00:00:00  (scu=       1s)
  37.50% Completed


 DUMP OF INTERMEDIATE RESULTS IN SELECTED SEGMENTS
  TIME =   1D 12H  0M  0S .
 
 TOTAL MASS IN SYSTEM 4.9942E+03 0.0000E+00 1.2605E+03 3.7337E+03
 CHANGES BY PROCESSES 0.0000E+00 0.0000E+00 0.0000E+00 0.0000E+00
 CHANGES BY LOADS     0.0000E+00 0.0000E+00 0.0000E+00 0.0000E+00
 BOUNDARY INFLOWS     5.4000E+03 0.0000E+00 1.8000E+03 3.6000E+03
 BOUNDARY OUTFLOWS    5.4000E+03 0.0000E+00 1.8000E+03 3.6000E+03
                      Check      Initial    Lateral in Boundary F 
                                            flow       low        
 CONCENTRATION                           
 SWT_Normal           1.0334E+00 0.0000E+00 2.6083E-01 7.7259E-01
 
  38.54% Completed


 DUMP OF INTERMEDIATE RESULTS IN SELECTED SEGMENTS
  TIME =   1D 13H  0M  0S .
 
 TOTAL MASS IN SYSTEM 4.9942E+03 0.0000E+00 1.2605E+03 3.7337E+03
 CHANGES BY PROCESSES 0.0000E+00 0.0000E+00 0.0000E+00 0.0000E+00
 CHANGES BY LOADS     0.0000E+00 0.0000E+00 0.0000E+00 0.0000E+00
 BOUNDARY INFLOWS     5.4000E+03 0.0000E+00 1.8000E+03 3.6000E+03
 BOUNDARY OUTFLOWS    5.4000E+03 0.0000E+00 1.8000E+03 3.6000E+03
                      Check      Initial    Lateral in Boundary F 
                                            flow       low        
 CONCENTRATION                           
 SWT_Normal           1.0334E+00 0.0000E+00 2.6083E-01 7.7259E-01
 
  39.58% Completed


 DUMP OF INTERMEDIATE RESULTS IN SELECTED SEGMENTS
  TIME =   1D 14H  0M  0S .
 
 TOTAL MASS IN SYSTEM 4.9942E+03 0.0000E+00 1.2605E+03 3.7337E+03
 CHANGES BY PROCESSES 0.0000E+00 0.0000E+00 0.0000E+00 0.0000E+00
 CHANGES BY LOADS     0.0000E+00 0.0000E+00 0.0000E+00 0.0000E+00
 BOUNDARY INFLOWS     5.4000E+03 0.0000E+00 1.8000E+03 3.6000E+03
 BOUNDARY OUTFLOWS    5.4000E+03 0.0000E+00 1.8000E+03 3.6000E+03
                      Check      Initial    Lateral in Boundary F 
                                            flow       low        
 CONCENTRATION                           
 SWT_Normal           1.0334E+00 0.0000E+00 2.6083E-01 7.7259E-01
 
  40.62% Completed


 DUMP OF INTERMEDIATE RESULTS IN SELECTED SEGMENTS
  TIME =   1D 15H  0M  0S .
 
 TOTAL MASS IN SYSTEM 4.9942E+03 0.0000E+00 1.2605E+03 3.7337E+03
 CHANGES BY PROCESSES 0.0000E+00 0.0000E+00 0.0000E+00 0.0000E+00
 CHANGES BY LOADS     0.0000E+00 0.0000E+00 0.0000E+00 0.0000E+00
 BOUNDARY INFLOWS     5.4000E+03 0.0000E+00 1.8000E+03 3.6000E+03
 BOUNDARY OUTFLOWS    5.4000E+03 0.0000E+00 1.8000E+03 3.6000E+03
                      Check      Initial    Lateral in Boundary F 
                                            flow       low        
 CONCENTRATION                           
 SWT_Normal           1.0334E+00 0.0000E+00 2.6083E-01 7.7259E-01
 
1
                                             Fraction calculation Sobek-WQ           
                                                                                     
                                                                                     
                                             T0: 2012.01.01 00:00:00  (scu=       1s)
  41.67% Completed


 DUMP OF INTERMEDIATE RESULTS IN SELECTED SEGMENTS
  TIME =   1D 16H  0M  0S .
 
 TOTAL MASS IN SYSTEM 4.9942E+03 0.0000E+00 1.2605E+03 3.7337E+03
 CHANGES BY PROCESSES 0.0000E+00 0.0000E+00 0.0000E+00 0.0000E+00
 CHANGES BY LOADS     0.0000E+00 0.0000E+00 0.0000E+00 0.0000E+00
 BOUNDARY INFLOWS     5.4000E+03 0.0000E+00 1.8000E+03 3.6000E+03
 BOUNDARY OUTFLOWS    5.4000E+03 0.0000E+00 1.8000E+03 3.6000E+03
                      Check      Initial    Lateral in Boundary F 
                                            flow       low        
 CONCENTRATION                           
 SWT_Normal           1.0334E+00 0.0000E+00 2.6083E-01 7.7259E-01
 
  42.71% Completed


 DUMP OF INTERMEDIATE RESULTS IN SELECTED SEGMENTS
  TIME =   1D 17H  0M  0S .
 
 TOTAL MASS IN SYSTEM 4.9942E+03 0.0000E+00 1.2605E+03 3.7337E+03
 CHANGES BY PROCESSES 0.0000E+00 0.0000E+00 0.0000E+00 0.0000E+00
 CHANGES BY LOADS     0.0000E+00 0.0000E+00 0.0000E+00 0.0000E+00
 BOUNDARY INFLOWS     5.4000E+03 0.0000E+00 1.8000E+03 3.6000E+03
 BOUNDARY OUTFLOWS    5.4000E+03 0.0000E+00 1.8000E+03 3.6000E+03
                      Check      Initial    Lateral in Boundary F 
                                            flow       low        
 CONCENTRATION                           
 SWT_Normal           1.0334E+00 0.0000E+00 2.6083E-01 7.7259E-01
 
  43.75% Completed


 DUMP OF INTERMEDIATE RESULTS IN SELECTED SEGMENTS
  TIME =   1D 18H  0M  0S .
 
 TOTAL MASS IN SYSTEM 4.9942E+03 0.0000E+00 1.2605E+03 3.7337E+03
 CHANGES BY PROCESSES 0.0000E+00 0.0000E+00 0.0000E+00 0.0000E+00
 CHANGES BY LOADS     0.0000E+00 0.0000E+00 0.0000E+00 0.0000E+00
 BOUNDARY INFLOWS     5.4000E+03 0.0000E+00 1.8000E+03 3.6000E+03
 BOUNDARY OUTFLOWS    5.4000E+03 0.0000E+00 1.8000E+03 3.6000E+03
                      Check      Initial    Lateral in Boundary F 
                                            flow       low        
 CONCENTRATION                           
 SWT_Normal           1.0334E+00 0.0000E+00 2.6083E-01 7.7259E-01
 
  44.79% Completed


 DUMP OF INTERMEDIATE RESULTS IN SELECTED SEGMENTS
  TIME =   1D 19H  0M  0S .
 
 TOTAL MASS IN SYSTEM 4.9942E+03 0.0000E+00 1.2605E+03 3.7337E+03
 CHANGES BY PROCESSES 0.0000E+00 0.0000E+00 0.0000E+00 0.0000E+00
 CHANGES BY LOADS     0.0000E+00 0.0000E+00 0.0000E+00 0.0000E+00
 BOUNDARY INFLOWS     5.4000E+03 0.0000E+00 1.8000E+03 3.6000E+03
 BOUNDARY OUTFLOWS    5.4000E+03 0.0000E+00 1.8000E+03 3.6000E+03
                      Check      Initial    Lateral in Boundary F 
                                            flow       low        
 CONCENTRATION                           
 SWT_Normal           1.0334E+00 0.0000E+00 2.6083E-01 7.7259E-01
 
1
                                             Fraction calculation Sobek-WQ           
                                                                                     
                                                                                     
                                             T0: 2012.01.01 00:00:00  (scu=       1s)
  45.83% Completed


 DUMP OF INTERMEDIATE RESULTS IN SELECTED SEGMENTS
  TIME =   1D 20H  0M  0S .
 
 TOTAL MASS IN SYSTEM 4.9942E+03 0.0000E+00 1.2605E+03 3.7337E+03
 CHANGES BY PROCESSES 0.0000E+00 0.0000E+00 0.0000E+00 0.0000E+00
 CHANGES BY LOADS     0.0000E+00 0.0000E+00 0.0000E+00 0.0000E+00
 BOUNDARY INFLOWS     5.4000E+03 0.0000E+00 1.8000E+03 3.6000E+03
 BOUNDARY OUTFLOWS    5.4000E+03 0.0000E+00 1.8000E+03 3.6000E+03
                      Check      Initial    Lateral in Boundary F 
                                            flow       low        
 CONCENTRATION                           
 SWT_Normal           1.0334E+00 0.0000E+00 2.6083E-01 7.7259E-01
 
  46.88% Completed


 DUMP OF INTERMEDIATE RESULTS IN SELECTED SEGMENTS
  TIME =   1D 21H  0M  0S .
 
 TOTAL MASS IN SYSTEM 4.9942E+03 0.0000E+00 1.2605E+03 3.7337E+03
 CHANGES BY PROCESSES 0.0000E+00 0.0000E+00 0.0000E+00 0.0000E+00
 CHANGES BY LOADS     0.0000E+00 0.0000E+00 0.0000E+00 0.0000E+00
 BOUNDARY INFLOWS     5.4000E+03 0.0000E+00 1.8000E+03 3.6000E+03
 BOUNDARY OUTFLOWS    5.4000E+03 0.0000E+00 1.8000E+03 3.6000E+03
                      Check      Initial    Lateral in Boundary F 
                                            flow       low        
 CONCENTRATION                           
 SWT_Normal           1.0334E+00 0.0000E+00 2.6083E-01 7.7259E-01
 
  47.92% Completed


 DUMP OF INTERMEDIATE RESULTS IN SELECTED SEGMENTS
  TIME =   1D 22H  0M  0S .
 
 TOTAL MASS IN SYSTEM 4.9942E+03 0.0000E+00 1.2605E+03 3.7337E+03
 CHANGES BY PROCESSES 0.0000E+00 0.0000E+00 0.0000E+00 0.0000E+00
 CHANGES BY LOADS     0.0000E+00 0.0000E+00 0.0000E+00 0.0000E+00
 BOUNDARY INFLOWS     5.4000E+03 0.0000E+00 1.8000E+03 3.6000E+03
 BOUNDARY OUTFLOWS    5.4000E+03 0.0000E+00 1.8000E+03 3.6000E+03
                      Check      Initial    Lateral in Boundary F 
                                            flow       low        
 CONCENTRATION                           
 SWT_Normal           1.0334E+00 0.0000E+00 2.6083E-01 7.7259E-01
 
  48.96% Completed


 DUMP OF INTERMEDIATE RESULTS IN SELECTED SEGMENTS
  TIME =   1D 23H  0M  0S .
 
 TOTAL MASS IN SYSTEM 4.9942E+03 0.0000E+00 1.2605E+03 3.7337E+03
 CHANGES BY PROCESSES 0.0000E+00 0.0000E+00 0.0000E+00 0.0000E+00
 CHANGES BY LOADS     0.0000E+00 0.0000E+00 0.0000E+00 0.0000E+00
 BOUNDARY INFLOWS     5.4000E+03 0.0000E+00 1.8000E+03 3.6000E+03
 BOUNDARY OUTFLOWS    5.4000E+03 0.0000E+00 1.8000E+03 3.6000E+03
                      Check      Initial    Lateral in Boundary F 
                                            flow       low        
 CONCENTRATION                           
 SWT_Normal           1.0334E+00 0.0000E+00 2.6083E-01 7.7259E-01
 
1
                                             Fraction calculation Sobek-WQ           
                                                                                     
                                                                                     
                                             T0: 2012.01.01 00:00:00  (scu=       1s)
  50.00% Completed


 DUMP OF INTERMEDIATE RESULTS IN SELECTED SEGMENTS
  TIME =   2D  0H  0M  0S .
 
 TOTAL MASS IN SYSTEM 4.9942E+03 0.0000E+00 1.2605E+03 3.7337E+03
 CHANGES BY PROCESSES 0.0000E+00 0.0000E+00 0.0000E+00 0.0000E+00
 CHANGES BY LOADS     0.0000E+00 0.0000E+00 0.0000E+00 0.0000E+00
 BOUNDARY INFLOWS     5.4000E+03 0.0000E+00 1.8000E+03 3.6000E+03
 BOUNDARY OUTFLOWS    5.4000E+03 0.0000E+00 1.8000E+03 3.6000E+03
                      Check      Initial    Lateral in Boundary F 
                                            flow       low        
 CONCENTRATION                           
 SWT_Normal           1.0334E+00 0.0000E+00 2.6083E-01 7.7259E-01
 
  51.04% Completed


 DUMP OF INTERMEDIATE RESULTS IN SELECTED SEGMENTS
  TIME =   2D  1H  0M  0S .
 
 TOTAL MASS IN SYSTEM 4.9942E+03 0.0000E+00 1.2605E+03 3.7337E+03
 CHANGES BY PROCESSES 0.0000E+00 0.0000E+00 0.0000E+00 0.0000E+00
 CHANGES BY LOADS     0.0000E+00 0.0000E+00 0.0000E+00 0.0000E+00
 BOUNDARY INFLOWS     5.4000E+03 0.0000E+00 1.8000E+03 3.6000E+03
 BOUNDARY OUTFLOWS    5.4000E+03 0.0000E+00 1.8000E+03 3.6000E+03
                      Check      Initial    Lateral in Boundary F 
                                            flow       low        
 CONCENTRATION                           
 SWT_Normal           1.0334E+00 0.0000E+00 2.6083E-01 7.7259E-01
 
  52.08% Completed


 DUMP OF INTERMEDIATE RESULTS IN SELECTED SEGMENTS
  TIME =   2D  2H  0M  0S .
 
 TOTAL MASS IN SYSTEM 4.9942E+03 0.0000E+00 1.2605E+03 3.7337E+03
 CHANGES BY PROCESSES 0.0000E+00 0.0000E+00 0.0000E+00 0.0000E+00
 CHANGES BY LOADS     0.0000E+00 0.0000E+00 0.0000E+00 0.0000E+00
 BOUNDARY INFLOWS     5.4000E+03 0.0000E+00 1.8000E+03 3.6000E+03
 BOUNDARY OUTFLOWS    5.4000E+03 0.0000E+00 1.8000E+03 3.6000E+03
                      Check      Initial    Lateral in Boundary F 
                                            flow       low        
 CONCENTRATION                           
 SWT_Normal           1.0334E+00 0.0000E+00 2.6083E-01 7.7259E-01
 
  53.12% Completed


 DUMP OF INTERMEDIATE RESULTS IN SELECTED SEGMENTS
  TIME =   2D  3H  0M  0S .
 
 TOTAL MASS IN SYSTEM 4.9942E+03 0.0000E+00 1.2605E+03 3.7337E+03
 CHANGES BY PROCESSES 0.0000E+00 0.0000E+00 0.0000E+00 0.0000E+00
 CHANGES BY LOADS     0.0000E+00 0.0000E+00 0.0000E+00 0.0000E+00
 BOUNDARY INFLOWS     5.4000E+03 0.0000E+00 1.8000E+03 3.6000E+03
 BOUNDARY OUTFLOWS    5.4000E+03 0.0000E+00 1.8000E+03 3.6000E+03
                      Check      Initial    Lateral in Boundary F 
                                            flow       low        
 CONCENTRATION                           
 SWT_Normal           1.0334E+00 0.0000E+00 2.6083E-01 7.7259E-01
 
1
                                             Fraction calculation Sobek-WQ           
                                                                                     
                                                                                     
                                             T0: 2012.01.01 00:00:00  (scu=       1s)
  54.17% Completed


 DUMP OF INTERMEDIATE RESULTS IN SELECTED SEGMENTS
  TIME =   2D  4H  0M  0S .
 
 TOTAL MASS IN SYSTEM 4.9942E+03 0.0000E+00 1.2605E+03 3.7337E+03
 CHANGES BY PROCESSES 0.0000E+00 0.0000E+00 0.0000E+00 0.0000E+00
 CHANGES BY LOADS     0.0000E+00 0.0000E+00 0.0000E+00 0.0000E+00
 BOUNDARY INFLOWS     5.4000E+03 0.0000E+00 1.8000E+03 3.6000E+03
 BOUNDARY OUTFLOWS    5.4000E+03 0.0000E+00 1.8000E+03 3.6000E+03
                      Check      Initial    Lateral in Boundary F 
                                            flow       low        
 CONCENTRATION                           
 SWT_Normal           1.0334E+00 0.0000E+00 2.6083E-01 7.7259E-01
 
  55.21% Completed


 DUMP OF INTERMEDIATE RESULTS IN SELECTED SEGMENTS
  TIME =   2D  5H  0M  0S .
 
 TOTAL MASS IN SYSTEM 4.9942E+03 0.0000E+00 1.2605E+03 3.7337E+03
 CHANGES BY PROCESSES 0.0000E+00 0.0000E+00 0.0000E+00 0.0000E+00
 CHANGES BY LOADS     0.0000E+00 0.0000E+00 0.0000E+00 0.0000E+00
 BOUNDARY INFLOWS     5.4000E+03 0.0000E+00 1.8000E+03 3.6000E+03
 BOUNDARY OUTFLOWS    5.4000E+03 0.0000E+00 1.8000E+03 3.6000E+03
                      Check      Initial    Lateral in Boundary F 
                                            flow       low        
 CONCENTRATION                           
 SWT_Normal           1.0334E+00 0.0000E+00 2.6083E-01 7.7259E-01
 
  56.25% Completed


 DUMP OF INTERMEDIATE RESULTS IN SELECTED SEGMENTS
  TIME =   2D  6H  0M  0S .
 
 TOTAL MASS IN SYSTEM 4.9942E+03 0.0000E+00 1.2605E+03 3.7337E+03
 CHANGES BY PROCESSES 0.0000E+00 0.0000E+00 0.0000E+00 0.0000E+00
 CHANGES BY LOADS     0.0000E+00 0.0000E+00 0.0000E+00 0.0000E+00
 BOUNDARY INFLOWS     5.4000E+03 0.0000E+00 1.8000E+03 3.6000E+03
 BOUNDARY OUTFLOWS    5.4000E+03 0.0000E+00 1.8000E+03 3.6000E+03
                      Check      Initial    Lateral in Boundary F 
                                            flow       low        
 CONCENTRATION                           
 SWT_Normal           1.0334E+00 0.0000E+00 2.6083E-01 7.7259E-01
 
  57.29% Completed


 DUMP OF INTERMEDIATE RESULTS IN SELECTED SEGMENTS
  TIME =   2D  7H  0M  0S .
 
 TOTAL MASS IN SYSTEM 4.9942E+03 0.0000E+00 1.2605E+03 3.7337E+03
 CHANGES BY PROCESSES 0.0000E+00 0.0000E+00 0.0000E+00 0.0000E+00
 CHANGES BY LOADS     0.0000E+00 0.0000E+00 0.0000E+00 0.0000E+00
 BOUNDARY INFLOWS     5.4000E+03 0.0000E+00 1.8000E+03 3.6000E+03
 BOUNDARY OUTFLOWS    5.4000E+03 0.0000E+00 1.8000E+03 3.6000E+03
                      Check      Initial    Lateral in Boundary F 
                                            flow       low        
 CONCENTRATION                           
 SWT_Normal           1.0334E+00 0.0000E+00 2.6083E-01 7.7259E-01
 
1
                                             Fraction calculation Sobek-WQ           
                                                                                     
                                                                                     
                                             T0: 2012.01.01 00:00:00  (scu=       1s)
  58.33% Completed


 DUMP OF INTERMEDIATE RESULTS IN SELECTED SEGMENTS
  TIME =   2D  8H  0M  0S .
 
 TOTAL MASS IN SYSTEM 4.9942E+03 0.0000E+00 1.2605E+03 3.7337E+03
 CHANGES BY PROCESSES 0.0000E+00 0.0000E+00 0.0000E+00 0.0000E+00
 CHANGES BY LOADS     0.0000E+00 0.0000E+00 0.0000E+00 0.0000E+00
 BOUNDARY INFLOWS     5.4000E+03 0.0000E+00 1.8000E+03 3.6000E+03
 BOUNDARY OUTFLOWS    5.4000E+03 0.0000E+00 1.8000E+03 3.6000E+03
                      Check      Initial    Lateral in Boundary F 
                                            flow       low        
 CONCENTRATION                           
 SWT_Normal           1.0334E+00 0.0000E+00 2.6083E-01 7.7259E-01
 
  59.38% Completed


 DUMP OF INTERMEDIATE RESULTS IN SELECTED SEGMENTS
  TIME =   2D  9H  0M  0S .
 
 TOTAL MASS IN SYSTEM 4.9942E+03 0.0000E+00 1.2605E+03 3.7337E+03
 CHANGES BY PROCESSES 0.0000E+00 0.0000E+00 0.0000E+00 0.0000E+00
 CHANGES BY LOADS     0.0000E+00 0.0000E+00 0.0000E+00 0.0000E+00
 BOUNDARY INFLOWS     5.4000E+03 0.0000E+00 1.8000E+03 3.6000E+03
 BOUNDARY OUTFLOWS    5.4000E+03 0.0000E+00 1.8000E+03 3.6000E+03
                      Check      Initial    Lateral in Boundary F 
                                            flow       low        
 CONCENTRATION                           
 SWT_Normal           1.0334E+00 0.0000E+00 2.6083E-01 7.7259E-01
 
  60.42% Completed


 DUMP OF INTERMEDIATE RESULTS IN SELECTED SEGMENTS
  TIME =   2D 10H  0M  0S .
 
 TOTAL MASS IN SYSTEM 4.9942E+03 0.0000E+00 1.2605E+03 3.7337E+03
 CHANGES BY PROCESSES 0.0000E+00 0.0000E+00 0.0000E+00 0.0000E+00
 CHANGES BY LOADS     0.0000E+00 0.0000E+00 0.0000E+00 0.0000E+00
 BOUNDARY INFLOWS     5.4000E+03 0.0000E+00 1.8000E+03 3.6000E+03
 BOUNDARY OUTFLOWS    5.4000E+03 0.0000E+00 1.8000E+03 3.6000E+03
                      Check      Initial    Lateral in Boundary F 
                                            flow       low        
 CONCENTRATION                           
 SWT_Normal           1.0334E+00 0.0000E+00 2.6083E-01 7.7259E-01
 
  61.46% Completed


 DUMP OF INTERMEDIATE RESULTS IN SELECTED SEGMENTS
  TIME =   2D 11H  0M  0S .
 
 TOTAL MASS IN SYSTEM 4.9942E+03 0.0000E+00 1.2605E+03 3.7337E+03
 CHANGES BY PROCESSES 0.0000E+00 0.0000E+00 0.0000E+00 0.0000E+00
 CHANGES BY LOADS     0.0000E+00 0.0000E+00 0.0000E+00 0.0000E+00
 BOUNDARY INFLOWS     5.4000E+03 0.0000E+00 1.8000E+03 3.6000E+03
 BOUNDARY OUTFLOWS    5.4000E+03 0.0000E+00 1.8000E+03 3.6000E+03
                      Check      Initial    Lateral in Boundary F 
                                            flow       low        
 CONCENTRATION                           
 SWT_Normal           1.0334E+00 0.0000E+00 2.6083E-01 7.7259E-01
 
1
                                             Fraction calculation Sobek-WQ           
                                                                                     
                                                                                     
                                             T0: 2012.01.01 00:00:00  (scu=       1s)
  62.50% Completed


 DUMP OF INTERMEDIATE RESULTS IN SELECTED SEGMENTS
  TIME =   2D 12H  0M  0S .
 
 TOTAL MASS IN SYSTEM 4.9942E+03 0.0000E+00 1.2605E+03 3.7337E+03
 CHANGES BY PROCESSES 0.0000E+00 0.0000E+00 0.0000E+00 0.0000E+00
 CHANGES BY LOADS     0.0000E+00 0.0000E+00 0.0000E+00 0.0000E+00
 BOUNDARY INFLOWS     5.4000E+03 0.0000E+00 1.8000E+03 3.6000E+03
 BOUNDARY OUTFLOWS    5.4000E+03 0.0000E+00 1.8000E+03 3.6000E+03
                      Check      Initial    Lateral in Boundary F 
                                            flow       low        
 CONCENTRATION                           
 SWT_Normal           1.0334E+00 0.0000E+00 2.6083E-01 7.7259E-01
 
  63.54% Completed


 DUMP OF INTERMEDIATE RESULTS IN SELECTED SEGMENTS
  TIME =   2D 13H  0M  0S .
 
 TOTAL MASS IN SYSTEM 4.9942E+03 0.0000E+00 1.2605E+03 3.7337E+03
 CHANGES BY PROCESSES 0.0000E+00 0.0000E+00 0.0000E+00 0.0000E+00
 CHANGES BY LOADS     0.0000E+00 0.0000E+00 0.0000E+00 0.0000E+00
 BOUNDARY INFLOWS     5.4000E+03 0.0000E+00 1.8000E+03 3.6000E+03
 BOUNDARY OUTFLOWS    5.4000E+03 0.0000E+00 1.8000E+03 3.6000E+03
                      Check      Initial    Lateral in Boundary F 
                                            flow       low        
 CONCENTRATION                           
 SWT_Normal           1.0334E+00 0.0000E+00 2.6083E-01 7.7259E-01
 
  64.58% Completed


 DUMP OF INTERMEDIATE RESULTS IN SELECTED SEGMENTS
  TIME =   2D 14H  0M  0S .
 
 TOTAL MASS IN SYSTEM 4.9942E+03 0.0000E+00 1.2605E+03 3.7337E+03
 CHANGES BY PROCESSES 0.0000E+00 0.0000E+00 0.0000E+00 0.0000E+00
 CHANGES BY LOADS     0.0000E+00 0.0000E+00 0.0000E+00 0.0000E+00
 BOUNDARY INFLOWS     5.4000E+03 0.0000E+00 1.8000E+03 3.6000E+03
 BOUNDARY OUTFLOWS    5.4000E+03 0.0000E+00 1.8000E+03 3.6000E+03
                      Check      Initial    Lateral in Boundary F 
                                            flow       low        
 CONCENTRATION                           
 SWT_Normal           1.0334E+00 0.0000E+00 2.6083E-01 7.7259E-01
 
  65.62% Completed


 DUMP OF INTERMEDIATE RESULTS IN SELECTED SEGMENTS
  TIME =   2D 15H  0M  0S .
 
 TOTAL MASS IN SYSTEM 4.9942E+03 0.0000E+00 1.2605E+03 3.7337E+03
 CHANGES BY PROCESSES 0.0000E+00 0.0000E+00 0.0000E+00 0.0000E+00
 CHANGES BY LOADS     0.0000E+00 0.0000E+00 0.0000E+00 0.0000E+00
 BOUNDARY INFLOWS     5.4000E+03 0.0000E+00 1.8000E+03 3.6000E+03
 BOUNDARY OUTFLOWS    5.4000E+03 0.0000E+00 1.8000E+03 3.6000E+03
                      Check      Initial    Lateral in Boundary F 
                                            flow       low        
 CONCENTRATION                           
 SWT_Normal           1.0334E+00 0.0000E+00 2.6083E-01 7.7259E-01
 
1
                                             Fraction calculation Sobek-WQ           
                                                                                     
                                                                                     
                                             T0: 2012.01.01 00:00:00  (scu=       1s)
  66.67% Completed


 DUMP OF INTERMEDIATE RESULTS IN SELECTED SEGMENTS
  TIME =   2D 16H  0M  0S .
 
 TOTAL MASS IN SYSTEM 4.9942E+03 0.0000E+00 1.2605E+03 3.7337E+03
 CHANGES BY PROCESSES 0.0000E+00 0.0000E+00 0.0000E+00 0.0000E+00
 CHANGES BY LOADS     0.0000E+00 0.0000E+00 0.0000E+00 0.0000E+00
 BOUNDARY INFLOWS     5.4000E+03 0.0000E+00 1.8000E+03 3.6000E+03
 BOUNDARY OUTFLOWS    5.4000E+03 0.0000E+00 1.8000E+03 3.6000E+03
                      Check      Initial    Lateral in Boundary F 
                                            flow       low        
 CONCENTRATION                           
 SWT_Normal           1.0334E+00 0.0000E+00 2.6083E-01 7.7259E-01
 
  67.71% Completed


 DUMP OF INTERMEDIATE RESULTS IN SELECTED SEGMENTS
  TIME =   2D 17H  0M  0S .
 
 TOTAL MASS IN SYSTEM 4.9942E+03 0.0000E+00 1.2605E+03 3.7337E+03
 CHANGES BY PROCESSES 0.0000E+00 0.0000E+00 0.0000E+00 0.0000E+00
 CHANGES BY LOADS     0.0000E+00 0.0000E+00 0.0000E+00 0.0000E+00
 BOUNDARY INFLOWS     5.4000E+03 0.0000E+00 1.8000E+03 3.6000E+03
 BOUNDARY OUTFLOWS    5.4000E+03 0.0000E+00 1.8000E+03 3.6000E+03
                      Check      Initial    Lateral in Boundary F 
                                            flow       low        
 CONCENTRATION                           
 SWT_Normal           1.0334E+00 0.0000E+00 2.6083E-01 7.7259E-01
 
  68.75% Completed


 DUMP OF INTERMEDIATE RESULTS IN SELECTED SEGMENTS
  TIME =   2D 18H  0M  0S .
 
 TOTAL MASS IN SYSTEM 4.9942E+03 0.0000E+00 1.2605E+03 3.7337E+03
 CHANGES BY PROCESSES 0.0000E+00 0.0000E+00 0.0000E+00 0.0000E+00
 CHANGES BY LOADS     0.0000E+00 0.0000E+00 0.0000E+00 0.0000E+00
 BOUNDARY INFLOWS     5.4000E+03 0.0000E+00 1.8000E+03 3.6000E+03
 BOUNDARY OUTFLOWS    5.4000E+03 0.0000E+00 1.8000E+03 3.6000E+03
                      Check      Initial    Lateral in Boundary F 
                                            flow       low        
 CONCENTRATION                           
 SWT_Normal           1.0334E+00 0.0000E+00 2.6083E-01 7.7259E-01
 
  69.79% Completed


 DUMP OF INTERMEDIATE RESULTS IN SELECTED SEGMENTS
  TIME =   2D 19H  0M  0S .
 
 TOTAL MASS IN SYSTEM 4.9942E+03 0.0000E+00 1.2605E+03 3.7337E+03
 CHANGES BY PROCESSES 0.0000E+00 0.0000E+00 0.0000E+00 0.0000E+00
 CHANGES BY LOADS     0.0000E+00 0.0000E+00 0.0000E+00 0.0000E+00
 BOUNDARY INFLOWS     5.4000E+03 0.0000E+00 1.8000E+03 3.6000E+03
 BOUNDARY OUTFLOWS    5.4000E+03 0.0000E+00 1.8000E+03 3.6000E+03
                      Check      Initial    Lateral in Boundary F 
                                            flow       low        
 CONCENTRATION                           
 SWT_Normal           1.0334E+00 0.0000E+00 2.6083E-01 7.7259E-01
 
1
                                             Fraction calculation Sobek-WQ           
                                                                                     
                                                                                     
                                             T0: 2012.01.01 00:00:00  (scu=       1s)
  70.83% Completed


 DUMP OF INTERMEDIATE RESULTS IN SELECTED SEGMENTS
  TIME =   2D 20H  0M  0S .
 
 TOTAL MASS IN SYSTEM 4.9942E+03 0.0000E+00 1.2605E+03 3.7337E+03
 CHANGES BY PROCESSES 0.0000E+00 0.0000E+00 0.0000E+00 0.0000E+00
 CHANGES BY LOADS     0.0000E+00 0.0000E+00 0.0000E+00 0.0000E+00
 BOUNDARY INFLOWS     5.4000E+03 0.0000E+00 1.8000E+03 3.6000E+03
 BOUNDARY OUTFLOWS    5.4000E+03 0.0000E+00 1.8000E+03 3.6000E+03
                      Check      Initial    Lateral in Boundary F 
                                            flow       low        
 CONCENTRATION                           
 SWT_Normal           1.0334E+00 0.0000E+00 2.6083E-01 7.7259E-01
 
  71.88% Completed


 DUMP OF INTERMEDIATE RESULTS IN SELECTED SEGMENTS
  TIME =   2D 21H  0M  0S .
 
 TOTAL MASS IN SYSTEM 4.9942E+03 0.0000E+00 1.2605E+03 3.7337E+03
 CHANGES BY PROCESSES 0.0000E+00 0.0000E+00 0.0000E+00 0.0000E+00
 CHANGES BY LOADS     0.0000E+00 0.0000E+00 0.0000E+00 0.0000E+00
 BOUNDARY INFLOWS     5.4000E+03 0.0000E+00 1.8000E+03 3.6000E+03
 BOUNDARY OUTFLOWS    5.4000E+03 0.0000E+00 1.8000E+03 3.6000E+03
                      Check      Initial    Lateral in Boundary F 
                                            flow       low        
 CONCENTRATION                           
 SWT_Normal           1.0334E+00 0.0000E+00 2.6083E-01 7.7259E-01
 
  72.92% Completed


 DUMP OF INTERMEDIATE RESULTS IN SELECTED SEGMENTS
  TIME =   2D 22H  0M  0S .
 
 TOTAL MASS IN SYSTEM 4.9942E+03 0.0000E+00 1.2605E+03 3.7337E+03
 CHANGES BY PROCESSES 0.0000E+00 0.0000E+00 0.0000E+00 0.0000E+00
 CHANGES BY LOADS     0.0000E+00 0.0000E+00 0.0000E+00 0.0000E+00
 BOUNDARY INFLOWS     5.4000E+03 0.0000E+00 1.8000E+03 3.6000E+03
 BOUNDARY OUTFLOWS    5.4000E+03 0.0000E+00 1.8000E+03 3.6000E+03
                      Check      Initial    Lateral in Boundary F 
                                            flow       low        
 CONCENTRATION                           
 SWT_Normal           1.0334E+00 0.0000E+00 2.6083E-01 7.7259E-01
 
  73.96% Completed


 DUMP OF INTERMEDIATE RESULTS IN SELECTED SEGMENTS
  TIME =   2D 23H  0M  0S .
 
 TOTAL MASS IN SYSTEM 4.9942E+03 0.0000E+00 1.2605E+03 3.7337E+03
 CHANGES BY PROCESSES 0.0000E+00 0.0000E+00 0.0000E+00 0.0000E+00
 CHANGES BY LOADS     0.0000E+00 0.0000E+00 0.0000E+00 0.0000E+00
 BOUNDARY INFLOWS     5.4000E+03 0.0000E+00 1.8000E+03 3.6000E+03
 BOUNDARY OUTFLOWS    5.4000E+03 0.0000E+00 1.8000E+03 3.6000E+03
                      Check      Initial    Lateral in Boundary F 
                                            flow       low        
 CONCENTRATION                           
 SWT_Normal           1.0334E+00 0.0000E+00 2.6083E-01 7.7259E-01
 
1
                                             Fraction calculation Sobek-WQ           
                                                                                     
                                                                                     
                                             T0: 2012.01.01 00:00:00  (scu=       1s)
  75.00% Completed


 DUMP OF INTERMEDIATE RESULTS IN SELECTED SEGMENTS
  TIME =   3D  0H  0M  0S .
 
 TOTAL MASS IN SYSTEM 4.9942E+03 0.0000E+00 1.2605E+03 3.7337E+03
 CHANGES BY PROCESSES 0.0000E+00 0.0000E+00 0.0000E+00 0.0000E+00
 CHANGES BY LOADS     0.0000E+00 0.0000E+00 0.0000E+00 0.0000E+00
 BOUNDARY INFLOWS     5.4000E+03 0.0000E+00 1.8000E+03 3.6000E+03
 BOUNDARY OUTFLOWS    5.4000E+03 0.0000E+00 1.8000E+03 3.6000E+03
                      Check      Initial    Lateral in Boundary F 
                                            flow       low        
 CONCENTRATION                           
 SWT_Normal           1.0334E+00 0.0000E+00 2.6083E-01 7.7259E-01
 
  76.04% Completed


 DUMP OF INTERMEDIATE RESULTS IN SELECTED SEGMENTS
  TIME =   3D  1H  0M  0S .
 
 TOTAL MASS IN SYSTEM 4.9942E+03 0.0000E+00 1.2605E+03 3.7337E+03
 CHANGES BY PROCESSES 0.0000E+00 0.0000E+00 0.0000E+00 0.0000E+00
 CHANGES BY LOADS     0.0000E+00 0.0000E+00 0.0000E+00 0.0000E+00
 BOUNDARY INFLOWS     5.4000E+03 0.0000E+00 1.8000E+03 3.6000E+03
 BOUNDARY OUTFLOWS    5.4000E+03 0.0000E+00 1.8000E+03 3.6000E+03
                      Check      Initial    Lateral in Boundary F 
                                            flow       low        
 CONCENTRATION                           
 SWT_Normal           1.0334E+00 0.0000E+00 2.6083E-01 7.7259E-01
 
  77.08% Completed


 DUMP OF INTERMEDIATE RESULTS IN SELECTED SEGMENTS
  TIME =   3D  2H  0M  0S .
 
 TOTAL MASS IN SYSTEM 4.9942E+03 0.0000E+00 1.2605E+03 3.7337E+03
 CHANGES BY PROCESSES 0.0000E+00 0.0000E+00 0.0000E+00 0.0000E+00
 CHANGES BY LOADS     0.0000E+00 0.0000E+00 0.0000E+00 0.0000E+00
 BOUNDARY INFLOWS     5.4000E+03 0.0000E+00 1.8000E+03 3.6000E+03
 BOUNDARY OUTFLOWS    5.4000E+03 0.0000E+00 1.8000E+03 3.6000E+03
                      Check      Initial    Lateral in Boundary F 
                                            flow       low        
 CONCENTRATION                           
 SWT_Normal           1.0334E+00 0.0000E+00 2.6083E-01 7.7259E-01
 
  78.12% Completed


 DUMP OF INTERMEDIATE RESULTS IN SELECTED SEGMENTS
  TIME =   3D  3H  0M  0S .
 
 TOTAL MASS IN SYSTEM 4.9942E+03 0.0000E+00 1.2605E+03 3.7337E+03
 CHANGES BY PROCESSES 0.0000E+00 0.0000E+00 0.0000E+00 0.0000E+00
 CHANGES BY LOADS     0.0000E+00 0.0000E+00 0.0000E+00 0.0000E+00
 BOUNDARY INFLOWS     5.4000E+03 0.0000E+00 1.8000E+03 3.6000E+03
 BOUNDARY OUTFLOWS    5.4000E+03 0.0000E+00 1.8000E+03 3.6000E+03
                      Check      Initial    Lateral in Boundary F 
                                            flow       low        
 CONCENTRATION                           
 SWT_Normal           1.0334E+00 0.0000E+00 2.6083E-01 7.7259E-01
 
1
                                             Fraction calculation Sobek-WQ           
                                                                                     
                                                                                     
                                             T0: 2012.01.01 00:00:00  (scu=       1s)
  79.17% Completed


 DUMP OF INTERMEDIATE RESULTS IN SELECTED SEGMENTS
  TIME =   3D  4H  0M  0S .
 
 TOTAL MASS IN SYSTEM 4.9942E+03 0.0000E+00 1.2605E+03 3.7337E+03
 CHANGES BY PROCESSES 0.0000E+00 0.0000E+00 0.0000E+00 0.0000E+00
 CHANGES BY LOADS     0.0000E+00 0.0000E+00 0.0000E+00 0.0000E+00
 BOUNDARY INFLOWS     5.4000E+03 0.0000E+00 1.8000E+03 3.6000E+03
 BOUNDARY OUTFLOWS    5.4000E+03 0.0000E+00 1.8000E+03 3.6000E+03
                      Check      Initial    Lateral in Boundary F 
                                            flow       low        
 CONCENTRATION                           
 SWT_Normal           1.0334E+00 0.0000E+00 2.6083E-01 7.7259E-01
 
  80.21% Completed


 DUMP OF INTERMEDIATE RESULTS IN SELECTED SEGMENTS
  TIME =   3D  5H  0M  0S .
 
 TOTAL MASS IN SYSTEM 4.9942E+03 0.0000E+00 1.2605E+03 3.7337E+03
 CHANGES BY PROCESSES 0.0000E+00 0.0000E+00 0.0000E+00 0.0000E+00
 CHANGES BY LOADS     0.0000E+00 0.0000E+00 0.0000E+00 0.0000E+00
 BOUNDARY INFLOWS     5.4000E+03 0.0000E+00 1.8000E+03 3.6000E+03
 BOUNDARY OUTFLOWS    5.4000E+03 0.0000E+00 1.8000E+03 3.6000E+03
                      Check      Initial    Lateral in Boundary F 
                                            flow       low        
 CONCENTRATION                           
 SWT_Normal           1.0334E+00 0.0000E+00 2.6083E-01 7.7259E-01
 
  81.25% Completed


 DUMP OF INTERMEDIATE RESULTS IN SELECTED SEGMENTS
  TIME =   3D  6H  0M  0S .
 
 TOTAL MASS IN SYSTEM 4.9942E+03 0.0000E+00 1.2605E+03 3.7337E+03
 CHANGES BY PROCESSES 0.0000E+00 0.0000E+00 0.0000E+00 0.0000E+00
 CHANGES BY LOADS     0.0000E+00 0.0000E+00 0.0000E+00 0.0000E+00
 BOUNDARY INFLOWS     5.4000E+03 0.0000E+00 1.8000E+03 3.6000E+03
 BOUNDARY OUTFLOWS    5.4000E+03 0.0000E+00 1.8000E+03 3.6000E+03
                      Check      Initial    Lateral in Boundary F 
                                            flow       low        
 CONCENTRATION                           
 SWT_Normal           1.0334E+00 0.0000E+00 2.6083E-01 7.7259E-01
 
  82.29% Completed


 DUMP OF INTERMEDIATE RESULTS IN SELECTED SEGMENTS
  TIME =   3D  7H  0M  0S .
 
 TOTAL MASS IN SYSTEM 4.9942E+03 0.0000E+00 1.2605E+03 3.7337E+03
 CHANGES BY PROCESSES 0.0000E+00 0.0000E+00 0.0000E+00 0.0000E+00
 CHANGES BY LOADS     0.0000E+00 0.0000E+00 0.0000E+00 0.0000E+00
 BOUNDARY INFLOWS     5.4000E+03 0.0000E+00 1.8000E+03 3.6000E+03
 BOUNDARY OUTFLOWS    5.4000E+03 0.0000E+00 1.8000E+03 3.6000E+03
                      Check      Initial    Lateral in Boundary F 
                                            flow       low        
 CONCENTRATION                           
 SWT_Normal           1.0334E+00 0.0000E+00 2.6083E-01 7.7259E-01
 
1
                                             Fraction calculation Sobek-WQ           
                                                                                     
                                                                                     
                                             T0: 2012.01.01 00:00:00  (scu=       1s)
  83.33% Completed


 DUMP OF INTERMEDIATE RESULTS IN SELECTED SEGMENTS
  TIME =   3D  8H  0M  0S .
 
 TOTAL MASS IN SYSTEM 4.9942E+03 0.0000E+00 1.2605E+03 3.7337E+03
 CHANGES BY PROCESSES 0.0000E+00 0.0000E+00 0.0000E+00 0.0000E+00
 CHANGES BY LOADS     0.0000E+00 0.0000E+00 0.0000E+00 0.0000E+00
 BOUNDARY INFLOWS     5.4000E+03 0.0000E+00 1.8000E+03 3.6000E+03
 BOUNDARY OUTFLOWS    5.4000E+03 0.0000E+00 1.8000E+03 3.6000E+03
                      Check      Initial    Lateral in Boundary F 
                                            flow       low        
 CONCENTRATION                           
 SWT_Normal           1.0334E+00 0.0000E+00 2.6083E-01 7.7259E-01
 
  84.38% Completed


 DUMP OF INTERMEDIATE RESULTS IN SELECTED SEGMENTS
  TIME =   3D  9H  0M  0S .
 
 TOTAL MASS IN SYSTEM 4.9942E+03 0.0000E+00 1.2605E+03 3.7337E+03
 CHANGES BY PROCESSES 0.0000E+00 0.0000E+00 0.0000E+00 0.0000E+00
 CHANGES BY LOADS     0.0000E+00 0.0000E+00 0.0000E+00 0.0000E+00
 BOUNDARY INFLOWS     5.4000E+03 0.0000E+00 1.8000E+03 3.6000E+03
 BOUNDARY OUTFLOWS    5.4000E+03 0.0000E+00 1.8000E+03 3.6000E+03
                      Check      Initial    Lateral in Boundary F 
                                            flow       low        
 CONCENTRATION                           
 SWT_Normal           1.0334E+00 0.0000E+00 2.6083E-01 7.7259E-01
 
  85.42% Completed


 DUMP OF INTERMEDIATE RESULTS IN SELECTED SEGMENTS
  TIME =   3D 10H  0M  0S .
 
 TOTAL MASS IN SYSTEM 4.9942E+03 0.0000E+00 1.2605E+03 3.7337E+03
 CHANGES BY PROCESSES 0.0000E+00 0.0000E+00 0.0000E+00 0.0000E+00
 CHANGES BY LOADS     0.0000E+00 0.0000E+00 0.0000E+00 0.0000E+00
 BOUNDARY INFLOWS     5.4000E+03 0.0000E+00 1.8000E+03 3.6000E+03
 BOUNDARY OUTFLOWS    5.4000E+03 0.0000E+00 1.8000E+03 3.6000E+03
                      Check      Initial    Lateral in Boundary F 
                                            flow       low        
 CONCENTRATION                           
 SWT_Normal           1.0334E+00 0.0000E+00 2.6083E-01 7.7259E-01
 
  86.46% Completed


 DUMP OF INTERMEDIATE RESULTS IN SELECTED SEGMENTS
  TIME =   3D 11H  0M  0S .
 
 TOTAL MASS IN SYSTEM 4.9942E+03 0.0000E+00 1.2605E+03 3.7337E+03
 CHANGES BY PROCESSES 0.0000E+00 0.0000E+00 0.0000E+00 0.0000E+00
 CHANGES BY LOADS     0.0000E+00 0.0000E+00 0.0000E+00 0.0000E+00
 BOUNDARY INFLOWS     5.4000E+03 0.0000E+00 1.8000E+03 3.6000E+03
 BOUNDARY OUTFLOWS    5.4000E+03 0.0000E+00 1.8000E+03 3.6000E+03
                      Check      Initial    Lateral in Boundary F 
                                            flow       low        
 CONCENTRATION                           
 SWT_Normal           1.0334E+00 0.0000E+00 2.6083E-01 7.7259E-01
 
1
                                             Fraction calculation Sobek-WQ           
                                                                                     
                                                                                     
                                             T0: 2012.01.01 00:00:00  (scu=       1s)
  87.50% Completed


 DUMP OF INTERMEDIATE RESULTS IN SELECTED SEGMENTS
  TIME =   3D 12H  0M  0S .
 
 TOTAL MASS IN SYSTEM 4.9942E+03 0.0000E+00 1.2605E+03 3.7337E+03
 CHANGES BY PROCESSES 0.0000E+00 0.0000E+00 0.0000E+00 0.0000E+00
 CHANGES BY LOADS     0.0000E+00 0.0000E+00 0.0000E+00 0.0000E+00
 BOUNDARY INFLOWS     5.4000E+03 0.0000E+00 1.8000E+03 3.6000E+03
 BOUNDARY OUTFLOWS    5.4000E+03 0.0000E+00 1.8000E+03 3.6000E+03
                      Check      Initial    Lateral in Boundary F 
                                            flow       low        
 CONCENTRATION                           
 SWT_Normal           1.0334E+00 0.0000E+00 2.6083E-01 7.7259E-01
 
  88.54% Completed


 DUMP OF INTERMEDIATE RESULTS IN SELECTED SEGMENTS
  TIME =   3D 13H  0M  0S .
 
 TOTAL MASS IN SYSTEM 4.9942E+03 0.0000E+00 1.2605E+03 3.7337E+03
 CHANGES BY PROCESSES 0.0000E+00 0.0000E+00 0.0000E+00 0.0000E+00
 CHANGES BY LOADS     0.0000E+00 0.0000E+00 0.0000E+00 0.0000E+00
 BOUNDARY INFLOWS     5.4000E+03 0.0000E+00 1.8000E+03 3.6000E+03
 BOUNDARY OUTFLOWS    5.4000E+03 0.0000E+00 1.8000E+03 3.6000E+03
                      Check      Initial    Lateral in Boundary F 
                                            flow       low        
 CONCENTRATION                           
 SWT_Normal           1.0334E+00 0.0000E+00 2.6083E-01 7.7259E-01
 
  89.58% Completed


 DUMP OF INTERMEDIATE RESULTS IN SELECTED SEGMENTS
  TIME =   3D 14H  0M  0S .
 
 TOTAL MASS IN SYSTEM 4.9942E+03 0.0000E+00 1.2605E+03 3.7337E+03
 CHANGES BY PROCESSES 0.0000E+00 0.0000E+00 0.0000E+00 0.0000E+00
 CHANGES BY LOADS     0.0000E+00 0.0000E+00 0.0000E+00 0.0000E+00
 BOUNDARY INFLOWS     5.4000E+03 0.0000E+00 1.8000E+03 3.6000E+03
 BOUNDARY OUTFLOWS    5.4000E+03 0.0000E+00 1.8000E+03 3.6000E+03
                      Check      Initial    Lateral in Boundary F 
                                            flow       low        
 CONCENTRATION                           
 SWT_Normal           1.0334E+00 0.0000E+00 2.6083E-01 7.7259E-01
 
  90.62% Completed


 DUMP OF INTERMEDIATE RESULTS IN SELECTED SEGMENTS
  TIME =   3D 15H  0M  0S .
 
 TOTAL MASS IN SYSTEM 4.9942E+03 0.0000E+00 1.2605E+03 3.7337E+03
 CHANGES BY PROCESSES 0.0000E+00 0.0000E+00 0.0000E+00 0.0000E+00
 CHANGES BY LOADS     0.0000E+00 0.0000E+00 0.0000E+00 0.0000E+00
 BOUNDARY INFLOWS     5.4000E+03 0.0000E+00 1.8000E+03 3.6000E+03
 BOUNDARY OUTFLOWS    5.4000E+03 0.0000E+00 1.8000E+03 3.6000E+03
                      Check      Initial    Lateral in Boundary F 
                                            flow       low        
 CONCENTRATION                           
 SWT_Normal           1.0334E+00 0.0000E+00 2.6083E-01 7.7259E-01
 
1
                                             Fraction calculation Sobek-WQ           
                                                                                     
                                                                                     
                                             T0: 2012.01.01 00:00:00  (scu=       1s)
  91.67% Completed


 DUMP OF INTERMEDIATE RESULTS IN SELECTED SEGMENTS
  TIME =   3D 16H  0M  0S .
 
 TOTAL MASS IN SYSTEM 4.9942E+03 0.0000E+00 1.2605E+03 3.7337E+03
 CHANGES BY PROCESSES 0.0000E+00 0.0000E+00 0.0000E+00 0.0000E+00
 CHANGES BY LOADS     0.0000E+00 0.0000E+00 0.0000E+00 0.0000E+00
 BOUNDARY INFLOWS     5.4000E+03 0.0000E+00 1.8000E+03 3.6000E+03
 BOUNDARY OUTFLOWS    5.4000E+03 0.0000E+00 1.8000E+03 3.6000E+03
                      Check      Initial    Lateral in Boundary F 
                                            flow       low        
 CONCENTRATION                           
 SWT_Normal           1.0334E+00 0.0000E+00 2.6083E-01 7.7259E-01
 
  92.71% Completed


 DUMP OF INTERMEDIATE RESULTS IN SELECTED SEGMENTS
  TIME =   3D 17H  0M  0S .
 
 TOTAL MASS IN SYSTEM 4.9942E+03 0.0000E+00 1.2605E+03 3.7337E+03
 CHANGES BY PROCESSES 0.0000E+00 0.0000E+00 0.0000E+00 0.0000E+00
 CHANGES BY LOADS     0.0000E+00 0.0000E+00 0.0000E+00 0.0000E+00
 BOUNDARY INFLOWS     5.4000E+03 0.0000E+00 1.8000E+03 3.6000E+03
 BOUNDARY OUTFLOWS    5.4000E+03 0.0000E+00 1.8000E+03 3.6000E+03
                      Check      Initial    Lateral in Boundary F 
                                            flow       low        
 CONCENTRATION                           
 SWT_Normal           1.0334E+00 0.0000E+00 2.6083E-01 7.7259E-01
 
  93.75% Completed


 DUMP OF INTERMEDIATE RESULTS IN SELECTED SEGMENTS
  TIME =   3D 18H  0M  0S .
 
 TOTAL MASS IN SYSTEM 4.9942E+03 0.0000E+00 1.2605E+03 3.7337E+03
 CHANGES BY PROCESSES 0.0000E+00 0.0000E+00 0.0000E+00 0.0000E+00
 CHANGES BY LOADS     0.0000E+00 0.0000E+00 0.0000E+00 0.0000E+00
 BOUNDARY INFLOWS     5.4000E+03 0.0000E+00 1.8000E+03 3.6000E+03
 BOUNDARY OUTFLOWS    5.4000E+03 0.0000E+00 1.8000E+03 3.6000E+03
                      Check      Initial    Lateral in Boundary F 
                                            flow       low        
 CONCENTRATION                           
 SWT_Normal           1.0334E+00 0.0000E+00 2.6083E-01 7.7259E-01
 
  94.79% Completed


 DUMP OF INTERMEDIATE RESULTS IN SELECTED SEGMENTS
  TIME =   3D 19H  0M  0S .
 
 TOTAL MASS IN SYSTEM 4.9942E+03 0.0000E+00 1.2605E+03 3.7337E+03
 CHANGES BY PROCESSES 0.0000E+00 0.0000E+00 0.0000E+00 0.0000E+00
 CHANGES BY LOADS     0.0000E+00 0.0000E+00 0.0000E+00 0.0000E+00
 BOUNDARY INFLOWS     5.4000E+03 0.0000E+00 1.8000E+03 3.6000E+03
 BOUNDARY OUTFLOWS    5.4000E+03 0.0000E+00 1.8000E+03 3.6000E+03
                      Check      Initial    Lateral in Boundary F 
                                            flow       low        
 CONCENTRATION                           
 SWT_Normal           1.0334E+00 0.0000E+00 2.6083E-01 7.7259E-01
 
1
                                             Fraction calculation Sobek-WQ           
                                                                                     
                                                                                     
                                             T0: 2012.01.01 00:00:00  (scu=       1s)
  95.83% Completed


 DUMP OF INTERMEDIATE RESULTS IN SELECTED SEGMENTS
  TIME =   3D 20H  0M  0S .
 
 TOTAL MASS IN SYSTEM 4.9942E+03 0.0000E+00 1.2605E+03 3.7337E+03
 CHANGES BY PROCESSES 0.0000E+00 0.0000E+00 0.0000E+00 0.0000E+00
 CHANGES BY LOADS     0.0000E+00 0.0000E+00 0.0000E+00 0.0000E+00
 BOUNDARY INFLOWS     5.4000E+03 0.0000E+00 1.8000E+03 3.6000E+03
 BOUNDARY OUTFLOWS    5.4000E+03 0.0000E+00 1.8000E+03 3.6000E+03
                      Check      Initial    Lateral in Boundary F 
                                            flow       low        
 CONCENTRATION                           
 SWT_Normal           1.0334E+00 0.0000E+00 2.6083E-01 7.7259E-01
 
  96.88% Completed


 DUMP OF INTERMEDIATE RESULTS IN SELECTED SEGMENTS
  TIME =   3D 21H  0M  0S .
 
 TOTAL MASS IN SYSTEM 4.9942E+03 0.0000E+00 1.2605E+03 3.7337E+03
 CHANGES BY PROCESSES 0.0000E+00 0.0000E+00 0.0000E+00 0.0000E+00
 CHANGES BY LOADS     0.0000E+00 0.0000E+00 0.0000E+00 0.0000E+00
 BOUNDARY INFLOWS     5.4000E+03 0.0000E+00 1.8000E+03 3.6000E+03
 BOUNDARY OUTFLOWS    5.4000E+03 0.0000E+00 1.8000E+03 3.6000E+03
                      Check      Initial    Lateral in Boundary F 
                                            flow       low        
 CONCENTRATION                           
 SWT_Normal           1.0334E+00 0.0000E+00 2.6083E-01 7.7259E-01
 
  97.92% Completed


 DUMP OF INTERMEDIATE RESULTS IN SELECTED SEGMENTS
  TIME =   3D 22H  0M  0S .
 
 TOTAL MASS IN SYSTEM 4.9942E+03 0.0000E+00 1.2605E+03 3.7337E+03
 CHANGES BY PROCESSES 0.0000E+00 0.0000E+00 0.0000E+00 0.0000E+00
 CHANGES BY LOADS     0.0000E+00 0.0000E+00 0.0000E+00 0.0000E+00
 BOUNDARY INFLOWS     5.4000E+03 0.0000E+00 1.8000E+03 3.6000E+03
 BOUNDARY OUTFLOWS    5.4000E+03 0.0000E+00 1.8000E+03 3.6000E+03
                      Check      Initial    Lateral in Boundary F 
                                            flow       low        
 CONCENTRATION                           
 SWT_Normal           1.0334E+00 0.0000E+00 2.6083E-01 7.7259E-01
 
  98.96% Completed


 DUMP OF INTERMEDIATE RESULTS IN SELECTED SEGMENTS
  TIME =   3D 23H  0M  0S .
 
 TOTAL MASS IN SYSTEM 4.9942E+03 0.0000E+00 1.2605E+03 3.7337E+03
 CHANGES BY PROCESSES 0.0000E+00 0.0000E+00 0.0000E+00 0.0000E+00
 CHANGES BY LOADS     0.0000E+00 0.0000E+00 0.0000E+00 0.0000E+00
 BOUNDARY INFLOWS     5.4000E+03 0.0000E+00 1.8000E+03 3.6000E+03
 BOUNDARY OUTFLOWS    5.4000E+03 0.0000E+00 1.8000E+03 3.6000E+03
                      Check      Initial    Lateral in Boundary F 
                                            flow       low        
 CONCENTRATION                           
 SWT_Normal           1.0334E+00 0.0000E+00 2.6083E-01 7.7259E-01
 

 REWIND ON       UNIT:  23, READING: ..\work\Area.dat
 AT SIMULATION TIME:    4D  0H  0M  0S !
 TIME IN FILE:          4D  0H  0M  0S !

 REWIND ON       UNIT:  24, READING: ..\work\Flow.dat
 AT SIMULATION TIME:    4D  0H  0M  0S !
 TIME IN FILE:          4D  0H  0M  0S !
1
                                             Fraction calculation Sobek-WQ           
                                                                                     
                                                                                     
                                             T0: 2012.01.01 00:00:00  (scu=       1s)
 100.00% Completed


 DUMP OF INTERMEDIATE RESULTS IN SELECTED SEGMENTS
  TIME =   4D  0H  0M  0S .
 
 TOTAL MASS IN SYSTEM 4.9942E+03 0.0000E+00 1.2605E+03 3.7337E+03
 CHANGES BY PROCESSES 0.0000E+00 0.0000E+00 0.0000E+00 0.0000E+00
 CHANGES BY LOADS     0.0000E+00 0.0000E+00 0.0000E+00 0.0000E+00
 BOUNDARY INFLOWS     5.4000E+03 0.0000E+00 1.8000E+03 3.6000E+03
 BOUNDARY OUTFLOWS    5.4000E+03 0.0000E+00 1.8000E+03 3.6000E+03
                      Check      Initial    Lateral in Boundary F 
                                            flow       low        
 CONCENTRATION                           
 SWT_Normal           1.0334E+00 0.0000E+00 2.6083E-01 7.7259E-01
 
Performance timers:
|------------------------------------------------------------------------|
|Timer name                     |   cpu time        |    wall clock      |
|                               |-------------------|--------------------|
|                     | #times  |   sec     |  %    |    sec     |  %    |
|------------------------------------------------------------------------|
|Total                |       1 |       2.9 | 100.0 |        0.4 | 100.0 | 
|------------------------------------------------------------------------|
| *** In init, simulation:                                               |
|------------------------------------------------------------------------|
|Initialization       |       1 |       0.0 |   0.0 |        0.0 |   0.0 | 
|Integrat.routine 15  |       1 |       2.9 | 100.0 |        0.4 | 100.0 | 
|Total:               |         |       2.9 | 100.0 |        0.4 | 100.0 | 
|------------------------------------------------------------------------|
| *** In integration routine:                                            |
|------------------------------------------------------------------------|
|Total Integration:   |         |       0.0 |   0.0 |        0.0 |   0.0 | 
|------------------------------------------------------------------------|
| *** In processes library:                                              |
|------------------------------------------------------------------------|
|Total Processes:     |         |       0.0 |   0.0 |        0.0 |   0.0 | 
|------------------------------------------------------------------------|
| *** In CouPLib communications library:                                 |
|------------------------------------------------------------------------|
|Index-sets           |       6 |       0.0 |   0.0 |        0.0 |   0.0 | 
|Interfaces           |       6 |       0.0 |   0.0 |        0.0 |   0.0 | 
|Total Communication: |         |       0.0 |   0.0 |        0.0 |   0.0 | 
|------------------------------------------------------------------------|
 
 Simulation ended normal
 Execution stop : 2013/12/05 10:14:48 
