07-05 16:38 root         INFO     Converting from Sobek3 to D-Flow FM: ZW_Storage.md1d
07-05 16:38 sobek3Reader INFO     Reading Sobek files
07-05 16:38 sobek3Reader INFO     Number of Nodes     :6
07-05 16:38 sobek3Reader INFO     Number of Branches  :3
07-05 16:38 sobek3Reader INFO     Number of Boundaries:3
07-05 16:38 converter    INFO     Converting
07-05 16:38 FMWriter     INFO     Writing FM files
07-05 16:38 UgridWriter  INFO     Writing Ugrid file
07-05 16:38 root         INFO     Finished
