*
* Deltares, Delft3D-RGFGRID Version 4.18.01.18383, Sep  7 2011, 14:23:22
* File creation date: 2011-10-05, 09:55:39
*
Coordinate System = Cartesian
     163     361
 0 0 0
 ETA=    1   4.26393243151432252E+04   4.26467575633023516E+04   4.26539515396032366E+04   4.26609207269899343E+04   4.26676640260101631E+04
             4.26741810925269456E+04   4.26804511632305366E+04   4.26864559018094806E+04   4.26922106322143445E+04   4.26977383822313786E+04
             4.27030593210065999E+04   4.27081919984489941E+04   4.27131537005260470E+04   4.27179595844924406E+04   4.27226179960947120E+04
             4.27271356530464691E+04   4.27315187282341576E+04   4.27357738781417793E+04   4.27399079908955173E+04   4.27439270119791763E+04
             4.27478335025886918E+04   4.27516289460515909E+04   4.27553145507957306E+04   4.27588910596939531E+04   4.27623587669143817E+04
             4.27657175684074537E+04   4.27689663084352433E+04   4.27721034855184262E+04   4.27751279039984292E+04   4.27780380502651824E+04
             4.27808322198991955E+04   4.27835092118264147E+04   4.27860693674506256E+04   4.27885136750870515E+04   4.27908434357285732E+04
             4.27930605371519705E+04   4.27951674147265367E+04   4.27971680689692366E+04   4.27990720266638164E+04   4.28008898242180803E+04
             4.28026311083480250E+04   4.28043048834628062E+04   4.28059196960406043E+04   4.28074831672495930E+04   4.28090001869542320E+04
             4.28104748075510215E+04   4.28119111196706508E+04   4.28133127642315958E+04   4.28146827158306478E+04   4.28160240298180070E+04
             4.28173397190073811E+04   4.28186328764095961E+04   4.28199062387139638E+04   4.28211633590481215E+04   4.28224088838527387E+04
             4.28236461462009684E+04   4.28248724246072525E+04   4.28260837702443823E+04   4.28272767065517110E+04   4.28284477480594505E+04
             4.28295927777758188E+04   4.28307081709130143E+04   4.28317922693275832E+04   4.28328441214774211E+04   4.28338627023303270E+04
             4.28348471478375213E+04   4.28357960802633388E+04   4.28367081950103238E+04   4.28375813611677222E+04   4.28384134340792152E+04
             4.28392023119286605E+04   4.28399462333686315E+04   4.28406436891539270E+04   4.28412948875462753E+04   4.28419050572903652E+04
             4.28424804717684747E+04   4.28430269442073404E+04   4.28435499364132120E+04   4.28440547308589521E+04   4.28445460739443515E+04
             4.28450279658905565E+04   4.28455040527292076E+04   4.28459781929042292E+04   4.28464540196832168E+04   4.28469350612207927E+04
             4.28474241255036322E+04   4.28479216449168380E+04   4.28484274249067967E+04   4.28489412946888624E+04   4.28494632501433880E+04
             4.28499938907365868E+04   4.28505335186278462E+04   4.28510809733791029E+04   4.28516345343470239E+04   4.28521927203852392E+04
             4.28527540027506038E+04   4.28533167828518053E+04   4.28538800438375911E+04   4.28544452297516618E+04   4.28550144886194321E+04
             4.28555901297912424E+04   4.28561743206454266E+04   4.28567689455591608E+04   4.28573752786059631E+04   4.28579925971224075E+04
             4.28586197534839521E+04   4.28592556428148309E+04   4.28598993394261634E+04   4.28605503113669693E+04   4.28612083658025804E+04
             4.28618741743435530E+04   4.28625484424390015E+04   4.28632318229663215E+04   4.28639247074297818E+04   4.28646274614555950E+04
             4.28653404923026246E+04   4.28660653631975511E+04   4.28668040193028210E+04   4.28675583983308679E+04   4.28683304278980213E+04
             4.28691217141879897E+04   4.28699340903961129E+04   4.28707702268625508E+04   4.28716332198545570E+04   4.28725260838746835E+04
             4.28734518988521086E+04   4.28744141370107754E+04   4.28754156954684149E+04   4.28764571755093639E+04   4.28775382471689663E+04
             4.28786586281343771E+04   4.28798176531669815E+04   4.28810147564160725E+04   4.28822483020621221E+04   4.28835130092730760E+04
             4.28848030099206226E+04   4.28861125439101088E+04   4.28874361245862019E+04   4.28887678756755558E+04   4.28901024621241231E+04
             4.28914366595152242E+04   4.28927678034150595E+04   4.28940932238599271E+04   4.28954102971418179E+04   4.28967170193918282E+04
             4.28980123562408771E+04   4.28992993124384448E+04   4.29005814247405797E+04   4.29018621797074156E+04   4.29031449031169032E+04
             4.29044325899699397E+04   4.29057273873572922E+04   4.29070287873126654E+04   4.29083356239446075E+04   4.29096466502846160E+04
             4.29109607820411256E+04   4.29122760963259716E+04   4.29135909407123108E+04   4.29149022435320730E+04   4.29162068529400276E+04
             4.29174994763849390E+04   4.29187763064370301E+04   4.29200349385699155E+04
 ETA=    2   4.26631500758454640E+04   4.26697713062946568E+04   4.26765593842467497E+04   4.26832861379769456E+04   4.26898542878581866E+04
             4.26962243977339094E+04   4.27023642957978300E+04   4.27082508021662870E+04   4.27138951754189329E+04   4.27193178446614038E+04
             4.27245376276266325E+04   4.27295723057610521E+04   4.27344388624961139E+04   4.27391524408840633E+04   4.27437218498647999E+04
             4.27481543087509344E+04   4.27524567150930816E+04   4.27566360663605737E+04   4.27606988448314878E+04   4.27646506570203346E+04
             4.27684935264503947E+04   4.27722285292723245E+04   4.27758564215020888E+04   4.27793776949795138E+04   4.27827927450079223E+04
             4.27861014612085855E+04   4.27893025779643722E+04   4.27923944215838346E+04   4.27953753037719071E+04   4.27982434961098188E+04
             4.28009971662470925E+04   4.28036349720568614E+04   4.28061571903783915E+04   4.28085647847898654E+04   4.28108591158943455E+04
             4.28130418949909727E+04   4.28151147718166976E+04   4.28170811030786645E+04   4.28189498525177478E+04   4.28207311928348790E+04
             4.28224344219082122E+04   4.28240684545611730E+04   4.28256419998240599E+04   4.28271628266606203E+04   4.28286358963739112E+04
             4.28300654132019699E+04   4.28314555272623329E+04   4.28328103692513469E+04   4.28341338981279478E+04   4.28354301318183643E+04
             4.28367029958509665E+04   4.28379564058859178E+04   4.28391940171343813E+04   4.28404195210132821E+04   4.28416369888256158E+04
             4.28428489699488782E+04   4.28440519687598353E+04   4.28452411161340642E+04   4.28464120699390405E+04   4.28475606492963416E+04
             4.28486825237993471E+04   4.28497740542310639E+04   4.28508336335655986E+04   4.28518603792178546E+04   4.28528532239663109E+04
             4.28538112822588009E+04   4.28547334500487341E+04   4.28556186648253570E+04   4.28564651837610654E+04   4.28572713678725631E+04
             4.28580356610737144E+04   4.28587566981240088E+04   4.28594329591207206E+04   4.28600642740611001E+04   4.28606551444147626E+04
             4.28612110849592573E+04   4.28617372658542663E+04   4.28622386146115823E+04   4.28627201322334295E+04   4.28631864389936891E+04
             4.28636415952404423E+04   4.28640893060157177E+04   4.28645333848610026E+04   4.28649775322708592E+04   4.28654255689326019E+04
             4.28658807780540519E+04   4.28663444008382648E+04   4.28668171318678287E+04   4.28672996331613394E+04   4.28677925686150411E+04
             4.28682967946008139E+04   4.28688125925967834E+04   4.28693381103211723E+04   4.28698709860337913E+04   4.28704090512468101E+04
             4.28709501983327646E+04   4.28714923263998935E+04   4.28720340903287724E+04   4.28725769271993777E+04   4.28731230089633900E+04
             4.28736745176777986E+04   4.28742336462458188E+04   4.28748025202841745E+04   4.28753828692332609E+04   4.28759747644584713E+04
             4.28765778938633593E+04   4.28771919268714119E+04   4.28778165582493311E+04   4.28784514649484481E+04   4.28790963095260959E+04
             4.28797508086174203E+04   4.28804146423511556E+04   4.28810875813663806E+04   4.28817693388341504E+04   4.28824597157848693E+04
             4.28831588757552090E+04   4.28838685164870985E+04   4.28845906737492114E+04   4.28853273986448257E+04   4.28860807178013420E+04
             4.28868526100311792E+04   4.28876453797926806E+04   4.28884625831961675E+04   4.28893081142600058E+04   4.28901857271979461E+04
             4.28910991343110727E+04   4.28920520008534222E+04   4.28930471446938172E+04   4.28940842229902337E+04   4.28951620682382272E+04
             4.28962795750026344E+04   4.28974355543655765E+04   4.28986288585150396E+04   4.28998574627437265E+04   4.29011161486808269E+04
             4.29023989730493413E+04   4.29036999266457206E+04   4.29050132437635548E+04   4.29063330899599096E+04   4.29076543937380775E+04
             4.29089744134229768E+04   4.29102910140779568E+04   4.29116019667464934E+04   4.29129051668090688E+04   4.29141985803918651E+04
             4.29154808804925997E+04   4.29167539584182232E+04   4.29180203696959434E+04   4.29192828274021595E+04   4.29205439328261273E+04
             4.29218062290741800E+04   4.29230715985001516E+04   4.29243395953464060E+04   4.29256092394823791E+04   4.29268790872996833E+04
             4.29281477517756794E+04   4.29294130574982992E+04   4.29306727603830368E+04   4.29319231070602327E+04   4.29331603097093612E+04
             4.29343784818039421E+04   4.29355729553189085E+04   4.29367350542553759E+04
 ETA=    3   4.26863210933799564E+04   4.26926705337321473E+04   4.26991764729002170E+04   4.27056731649820431E+04   4.27120582841141077E+04
             4.27182748376995514E+04   4.27242807242621420E+04   4.27300472229807929E+04   4.27355811250693296E+04   4.27408997179284852E+04
             4.27460200744974572E+04   4.27509590217055666E+04   4.27557329633629706E+04   4.27603568115559974E+04   4.27648394607029186E+04
             4.27691883694782082E+04   4.27734106226780132E+04   4.27775132807737027E+04   4.27815027157322547E+04   4.27853843233479274E+04
             4.27891599029166246E+04   4.27928302576185670E+04   4.27963959342684902E+04   4.27998572493128522E+04   4.28032144923823653E+04
             4.28064674965881422E+04   4.28096149048971347E+04   4.28126549717339585E+04   4.28155859084838885E+04   4.28184059331686803E+04
             4.28211132072789260E+04   4.28237063835524241E+04   4.28261856926108230E+04   4.28285520711439531E+04   4.28308067729735340E+04
             4.28329513621690712E+04   4.28349872538005511E+04   4.28369175216512522E+04   4.28387508478189411E+04   4.28404971329531545E+04
             4.28421654653358128E+04   4.28437646110302521E+04   4.28453031606914374E+04   4.28467888113154113E+04   4.28482264813048023E+04
             4.28496203454383722E+04   4.28509746027819565E+04   4.28522934453716443E+04   4.28535809758201212E+04   4.28548413644682951E+04
             4.28560787938438880E+04   4.28572973743217008E+04   4.28585008984341184E+04   4.28596931129452350E+04   4.28608780863109059E+04
             4.28620583031392525E+04   4.28632301855411060E+04   4.28643887761816222E+04   4.28655296749751287E+04   4.28666486992209466E+04
             4.28677415336456761E+04   4.28688046265839876E+04   4.28698365278804922E+04   4.28708365244707165E+04   4.28718037198819438E+04
             4.28727373888627844E+04   4.28736366081606975E+04   4.28745004358602964E+04   4.28753271696883821E+04   4.28761151727817123E+04
             4.28768628297125179E+04   4.28775686708117209E+04   4.28782309995212199E+04   4.28788493763261431E+04   4.28794280595178934E+04
             4.28799723205626869E+04   4.28804871222934526E+04   4.28809771967547567E+04   4.28814473997876557E+04   4.28819022169949385E+04
             4.28823455460409095E+04   4.28827809417397293E+04   4.28832120914210609E+04   4.28836425851258609E+04   4.28840761557035512E+04
             4.28845160292776782E+04   4.28849635466833934E+04   4.28854195232598286E+04   4.28858847493175199E+04   4.28863600094103313E+04
             4.28868462714442285E+04   4.28873439294513300E+04   4.28878512095799670E+04   4.28883657993974048E+04   4.28888855901585339E+04
             4.28894085123832119E+04   4.28899324771575848E+04   4.28904561204642232E+04   4.28909808407603268E+04   4.28915087728980361E+04
             4.28920420606770203E+04   4.28925828739981953E+04   4.28931333541252607E+04   4.28936952711400299E+04   4.28942688037855987E+04
             4.28948537486949936E+04   4.28954498797070337E+04   4.28960569734927849E+04   4.28966747701726563E+04   4.28973029687939488E+04
             4.28979412394832179E+04   4.28985892148186467E+04   4.28992465656045024E+04   4.28999129378064827E+04   4.29005880434075516E+04
             4.29012719534781281E+04   4.29019662820930098E+04   4.29026729989708037E+04   4.29033941087800486E+04   4.29041316075763607E+04
             4.29048874829385459E+04   4.29056640531277808E+04   4.29064649405944801E+04   4.29072940858704605E+04   4.29081553363243293E+04
             4.29090525127025758E+04   4.29099893632341045E+04   4.29109687916395051E+04   4.29119904911292979E+04   4.29130533053965410E+04
             4.29141560628115112E+04   4.29152975345988452E+04   4.29164764291653992E+04   4.29176906387880445E+04   4.29189349043893526E+04
             4.29202032298065242E+04   4.29214896120430858E+04   4.29227881923627210E+04   4.29240931637409158E+04   4.29253994739188274E+04
             4.29267044295738742E+04   4.29280059980993537E+04   4.29293019875828031E+04   4.29305902519988813E+04   4.29318686833284519E+04
             4.29331358507967161E+04   4.29343932792921842E+04   4.29356431885943966E+04   4.29368879979039993E+04   4.29381300713800374E+04
             4.29393717340101357E+04   4.29406148024368085E+04   4.29418589617337566E+04   4.29431034513902778E+04   4.29443471882089289E+04
             4.29455892540811619E+04   4.29468282448698446E+04   4.29480629449883709E+04   4.29492909302700646E+04   4.29505103000653835E+04
             4.29517181336399299E+04   4.29529132160746158E+04   4.29540855889642189E+04
 ETA=    4   4.27090277610768826E+04   4.27152622221534766E+04   4.27216028058013471E+04   4.27279321568445666E+04   4.27341665603457732E+04
             4.27402477084782804E+04   4.27461304927499368E+04   4.27517840965025389E+04   4.27572129576195512E+04   4.27624322522852090E+04
             4.27674576687696608E+04   4.27723052176851706E+04   4.27769907442288386E+04   4.27815288245191696E+04   4.27859282450038299E+04
             4.27901964449375955E+04   4.27943404674879275E+04   4.27983673020946517E+04   4.28022832398838727E+04   4.28060935409457088E+04
             4.28097999053750682E+04   4.28134030250599244E+04   4.28169033807969899E+04   4.28203012284255892E+04   4.28235968000503999E+04
             4.28267899304127277E+04   4.28298793012354872E+04   4.28328632465634291E+04   4.28357400531230378E+04   4.28385080451023023E+04
             4.28411654872226645E+04   4.28437111432821839E+04   4.28461452518401929E+04   4.28484687432000064E+04   4.28506827949009094E+04
             4.28527888620570084E+04   4.28547881767189756E+04   4.28566835811479832E+04   4.28584835301193962E+04   4.28601976712312171E+04
             4.28618348821396939E+04   4.28634037272713322E+04   4.28649126259986151E+04   4.28663691121871161E+04   4.28677779086601004E+04
             4.28691430042523716E+04   4.28704684456519099E+04   4.28717582700845960E+04   4.28730164735218059E+04   4.28742471568647161E+04
             4.28754546432828065E+04   4.28766431784346933E+04   4.28778166618258620E+04   4.28789789496869344E+04   4.28801342455551712E+04
             4.28812851739205580E+04   4.28824281776271382E+04   4.28835583768172655E+04   4.28846714625515378E+04   4.28857633868898556E+04
             4.28868299401740805E+04   4.28878677001091128E+04   4.28888754400226608E+04   4.28898526504720503E+04   4.28907986186810085E+04
             4.28917127533872917E+04   4.28925942603915901E+04   4.28934422491761215E+04   4.28942549309363239E+04   4.28950305164870733E+04
             4.28957672390075168E+04   4.28964634249544397E+04   4.28971171378350409E+04   4.28977276656063987E+04   4.28982991118671125E+04
             4.28988366056967352E+04   4.28993449806901262E+04   4.28998288590285010E+04   4.29002930162520715E+04   4.29007418713630905E+04
             4.29011791706486911E+04   4.29016083300159080E+04   4.29020329051462031E+04   4.29024563694255048E+04   4.29028823360115130E+04
             4.29033139412307282E+04   4.29037525747463733E+04   4.29041991209774933E+04   4.29046544330416218E+04   4.29051193632682334E+04
             4.29055949684081788E+04   4.29060817282454154E+04   4.29065778594645963E+04   4.29070810427293036E+04   4.29075891797679724E+04
             4.29081002207920683E+04   4.29086120702807166E+04   4.29091233529570600E+04   4.29096354780213442E+04   4.29101505848972520E+04
             4.29106708140999908E+04   4.29111983275123057E+04   4.29117352726743629E+04   4.29122834296309666E+04   4.29128430241889146E+04
             4.29134139030235019E+04   4.29139958840607869E+04   4.29145887835581816E+04   4.29151923932007703E+04   4.29158064544720328E+04
             4.29164306268041109E+04   4.29170645268987646E+04   4.29177078062049186E+04   4.29183600948256935E+04   4.29190210622250816E+04
             4.29196907400187192E+04   4.29203706900802499E+04   4.29210628375036977E+04   4.29217691355765855E+04   4.29224915281216527E+04
             4.29232319656459076E+04   4.29239927235928553E+04   4.29247773913930941E+04   4.29255898788909035E+04   4.29264340320373449E+04
             4.29273136745086886E+04   4.29282325815344157E+04   4.29291937050719571E+04   4.29301968084222026E+04   4.29312408270519227E+04
             4.29323246646783227E+04   4.29334471817777448E+04   4.29346071291553817E+04   4.29358024736231018E+04   4.29370280527339928E+04
             4.29382779810685606E+04   4.29395463376399566E+04   4.29408273169537060E+04   4.29421151457902524E+04   4.29434048154199772E+04
             4.29446936904486938E+04   4.29459797821791581E+04   4.29472609206080815E+04   4.29485349671781441E+04   4.29497998291983604E+04
             4.29510540740563010E+04   4.29522990426389151E+04   4.29535367891265269E+04   4.29547695876750222E+04   4.29559997185014727E+04
             4.29572294217595918E+04   4.29584605024459815E+04   4.29596927979957036E+04   4.29609257597398173E+04   4.29621585845213413E+04
             4.29633906597232635E+04   4.29646210349805915E+04   4.29658489643370922E+04   4.29670726056163330E+04   4.29682906068275624E+04
             4.29695011361614088E+04   4.29707037334083652E+04   4.29718839434660258E+04
 ETA=    5   4.27313867394780245E+04   4.27375615874243667E+04   4.27438074078542340E+04   4.27500245448857822E+04   4.27561452238916099E+04
             4.27621155432209634E+04   4.27678919006719661E+04   4.27734442796745425E+04   4.27787768052113752E+04   4.27839038529236204E+04
             4.27888403859745158E+04   4.27936019257618973E+04   4.27982039127851749E+04   4.28026606390266024E+04   4.28069807637809427E+04
             4.28111716327334289E+04   4.28152401806776179E+04   4.28191932817930647E+04   4.28230371742889402E+04   4.28267770360185095E+04
             4.28304145370675615E+04   4.28339503534619507E+04   4.28373849951716620E+04   4.28407187542049869E+04   4.28439518770561845E+04
             4.28470842685274547E+04   4.28501147294337861E+04   4.28530417639645602E+04   4.28558638100765311E+04   4.28585793702156079E+04
             4.28611868628385419E+04   4.28636851973694211E+04   4.28660746365940577E+04   4.28683560896132913E+04   4.28705306519182923E+04
             4.28725996442070464E+04   4.28745641108824275E+04   4.28764266422196524E+04   4.28781954689504128E+04   4.28798799879242870E+04
             4.28814888832740980E+04   4.28830305285932045E+04   4.28845131851462793E+04   4.28859442342295006E+04   4.28873281775859796E+04
             4.28886687847003996E+04   4.28899698882830198E+04   4.28912352984357494E+04   4.28924688119084967E+04   4.28936743611802085E+04
             4.28948563761975020E+04   4.28960192181611637E+04   4.28971668874108509E+04   4.28983033735713179E+04   4.28994330664132794E+04
             4.29005588101051180E+04   4.29016770677242166E+04   4.29027830368300274E+04   4.29038725089910513E+04   4.29049415555832456E+04
             4.29059860470469284E+04   4.29070026258195940E+04   4.29079902815588503E+04   4.29089486721110297E+04   4.29098772579321303E+04
             4.29107755505924870E+04   4.29116428860082378E+04   4.29124784083004342E+04   4.29132802189147696E+04   4.29140463356737819E+04
             4.29147748366927699E+04   4.29154638283801396E+04   4.29161111393295359E+04   4.29167157974574438E+04   4.29172818217928871E+04
             4.29178142742473574E+04   4.29183179109578123E+04   4.29187973039326025E+04   4.29192571911428968E+04   4.29197019847301926E+04
             4.29201352870634873E+04   4.29205604001938336E+04   4.29209807483953628E+04   4.29213997027801452E+04   4.29218207427978050E+04
             4.29222469092462852E+04   4.29226796337819542E+04   4.29231198703109694E+04   4.29235685146873147E+04   4.29240264807453204E+04
             4.29244949152579720E+04   4.29249743892389233E+04   4.29254630565478583E+04   4.29259585451191961E+04   4.29264587320316277E+04
             4.29269615572223775E+04   4.29274648863391776E+04   4.29279673069570272E+04   4.29284702546723565E+04   4.29289758877787317E+04
             4.29294863608254018E+04   4.29300038338324011E+04   4.29305304624875935E+04   4.29310680311441320E+04   4.29316167981278486E+04
             4.29321766378847024E+04   4.29327473950432832E+04   4.29333289107354867E+04   4.29339210216342617E+04   4.29345235075701130E+04
             4.29351360059362050E+04   4.29357581136280787E+04   4.29363894654167889E+04   4.29370296852024767E+04   4.29376784064359454E+04
             4.29383356310059098E+04   4.29390028895964715E+04   4.29396820779028858E+04   4.29403751074774846E+04   4.29410838766377783E+04
             4.29418102947286534E+04   4.29425565891566657E+04   4.29433263078997261E+04   4.29441233124854771E+04   4.29449514214288938E+04
             4.29458144358480058E+04   4.29467161356155993E+04   4.29476594958729838E+04   4.29486443301147883E+04   4.29496696531182752E+04
             4.29507344562721410E+04   4.29518377050125273E+04   4.29529782401253979E+04   4.29541541403156079E+04   4.29553603969306423E+04
             4.29565912830215821E+04   4.29578410144162481E+04   4.29591038918161285E+04   4.29603742173244464E+04   4.29616470386451037E+04
             4.29629198213041818E+04   4.29641906599475042E+04   4.29654574410911955E+04   4.29667180905906935E+04   4.29679706075495196E+04
             4.29692136432540137E+04   4.29704484216058336E+04   4.29716769027213159E+04   4.29729012849753926E+04   4.29741238157689804E+04
             4.29753466740656659E+04   4.29765716468543324E+04   4.29777986998985725E+04   4.29790274156686646E+04   4.29802571677535088E+04
             4.29814874537179057E+04   4.29827175388053292E+04   4.29839467557996322E+04   4.29851734491798125E+04   4.29863961836512171E+04
             4.29876133529730214E+04   4.29888242431916515E+04   4.29900103028759113E+04
 ETA=    6   4.27535112746935120E+04   4.27596457334921943E+04   4.27658275394941084E+04   4.27719624394427374E+04   4.27779936482520206E+04
             4.27838722929685027E+04   4.27895574054253593E+04   4.27950205684150205E+04   4.28002664192830489E+04   4.28053092649371029E+04
             4.28101638305594461E+04   4.28148454230712523E+04   4.28193692499518802E+04   4.28237494232826066E+04   4.28279945544657458E+04
             4.28321119479349727E+04   4.28361084777508295E+04   4.28399909396492658E+04   4.28437655715794463E+04   4.28474375354492295E+04
             4.28510085193212217E+04   4.28544792344792877E+04   4.28578502667727298E+04   4.28611220017930682E+04   4.28642947448365376E+04
             4.28673685066785620E+04   4.28703422394690497E+04   4.28732146407051332E+04   4.28759843149305889E+04   4.28786499435879668E+04
             4.28812100926220737E+04   4.28836637946053597E+04   4.28860113193983998E+04   4.28882535166815578E+04   4.28903913638023878E+04
             4.28924259991644722E+04   4.28943582518772964E+04   4.28961904303099000E+04   4.28979305264562863E+04   4.28995876854611197E+04
             4.29011704168215365E+04   4.29026869354032169E+04   4.29041453872430575E+04   4.29055530542943015E+04   4.29069142719833399E+04
             4.29082326397051074E+04   4.29095118082347763E+04   4.29107553851281264E+04   4.29119669542294287E+04   4.29131502606638533E+04
             4.29143098222704793E+04   4.29154501149404095E+04   4.29165752206025936E+04   4.29176892564028021E+04   4.29187968085540051E+04
             4.29199009586455722E+04   4.29209981724618629E+04   4.29220836771319009E+04   4.29231533311101957E+04   4.29242032643821949E+04
             4.29252293652447988E+04   4.29262282532472091E+04   4.29271990764345755E+04   4.29281416033247951E+04   4.29290554319631847E+04
             4.29299401484043265E+04   4.29307952213678072E+04   4.29316198416576008E+04   4.29324120160677194E+04   4.29331695859423198E+04
             4.29338905085827064E+04   4.29345727078049167E+04   4.29352138113734545E+04   4.29358126258292104E+04   4.29363731371611939E+04
             4.29369003932270934E+04   4.29373991034107094E+04   4.29378738201287706E+04   4.29383292689071313E+04   4.29387698844408151E+04
             4.29391991404415530E+04   4.29396202419972542E+04   4.29400364912137229E+04   4.29404511676453258E+04   4.29408676113067559E+04
             4.29412887629058605E+04   4.29417160939898022E+04   4.29421506295705185E+04   4.29425932969200803E+04   4.29430450661083014E+04
             4.29435071817089556E+04   4.29439803191791361E+04   4.29444625564160888E+04   4.29449514527513020E+04   4.29454448583430494E+04
             4.29459406975142629E+04   4.29464367859843769E+04   4.29469316590192611E+04   4.29474267817056534E+04   4.29479243354977298E+04
             4.29484264906091121E+04   4.29489354063760475E+04   4.29494532464683871E+04   4.29499817986329654E+04   4.29505213497419900E+04
             4.29510717964666619E+04   4.29516330021617032E+04   4.29522048259344519E+04   4.29527871472924526E+04   4.29533797829446994E+04
             4.29539823367176214E+04   4.29545943743899479E+04   4.29552155117482107E+04   4.29558453644650144E+04   4.29564835285895315E+04
             4.29571299754705178E+04   4.29577862161791054E+04   4.29584541298228505E+04   4.29591355946850381E+04   4.29598324736177528E+04
             4.29605466413533213E+04   4.29612802873350884E+04   4.29620369254251927E+04   4.29628203779883333E+04   4.29636344346387341E+04
             4.29644828724586987E+04   4.29653694721437423E+04   4.29662972241776661E+04   4.29672659690195433E+04   4.29682747709585383E+04
             4.29693226884900068E+04   4.29704087643294770E+04   4.29715319086692398E+04   4.29726902832904671E+04   4.29738790183714373E+04
             4.29750925216877658E+04   4.29763251375676773E+04   4.29775712616077508E+04   4.29788252723466940E+04   4.29800822683064907E+04
             4.29813398327308751E+04   4.29825961611318489E+04   4.29838492230133270E+04   4.29850970369073984E+04   4.29863377375168420E+04
             4.29875701054025776E+04   4.29887952782121429E+04   4.29900151411412371E+04   4.29912318349130146E+04   4.29924475744096853E+04
             4.29936644630251321E+04   4.29948842296892253E+04   4.29961069292396860E+04   4.29973322166865328E+04   4.29985595870747566E+04
             4.29997885785513281E+04   4.30010186002630289E+04   4.30022489933504112E+04   4.30034782564243724E+04   4.30047048545081998E+04
             4.30059272642234791E+04   4.30071444567928993E+04   4.30083347906560739E+04
 ETA=    7   4.27754343195519614E+04   4.27815387461405335E+04   4.27876739061060362E+04   4.27937465346509343E+04   4.27997068981712728E+04
             4.28055103063783608E+04   4.28111184397819889E+04   4.28165045648956002E+04   4.28216741424537540E+04   4.28266418078596253E+04
             4.28314224150438531E+04   4.28360312800487154E+04   4.28404835169406215E+04   4.28447931281478304E+04   4.28489687304938052E+04
             4.28530176483886462E+04   4.28569467625428515E+04   4.28607628449446347E+04   4.28644721818874605E+04   4.28680799904656742E+04
             4.28715880309578934E+04   4.28749970844601048E+04   4.28783078286837044E+04   4.28815207720366016E+04   4.28846363119380258E+04
             4.28876545832265911E+04   4.28905747040831775E+04   4.28933955697799174E+04   4.28961159608490780E+04   4.28987347330891425E+04
             4.29012505962996438E+04   4.29036626913013752E+04   4.29059712945065039E+04   4.29081771880460728E+04   4.29102812177041124E+04
             4.29122843210131105E+04   4.29141870967732611E+04   4.29159915610003009E+04   4.29177054443987217E+04   4.29193376296073911E+04
             4.29208964450456842E+04   4.29223899514371151E+04   4.29238261952866960E+04   4.29252123826733514E+04   4.29265527325043586E+04
             4.29278507235832585E+04   4.29291098666631515E+04   4.29303336133548146E+04   4.29315253418265929E+04   4.29326886194690233E+04
             4.29338280197398271E+04   4.29349481236338834E+04   4.29360530696362621E+04   4.29371470798857408E+04   4.29382349332344529E+04
             4.29393199428335138E+04   4.29403985939149352E+04   4.29414661218780311E+04   4.29425184445231644E+04   4.29435517226779339E+04
             4.29445618309462443E+04   4.29455453268842393E+04   4.29465014581194191E+04   4.29474300671210804E+04   4.29483308469566182E+04
             4.29492034417181058E+04   4.29500474390905219E+04   4.29508620928508681E+04   4.29516453316231054E+04   4.29523948554287053E+04
             4.29531085273182471E+04   4.29537841339044899E+04   4.29544191269871590E+04   4.29550121260651795E+04   4.29555671024339172E+04
             4.29560891101090310E+04   4.29565828212847482E+04   4.29570527689373048E+04   4.29575036767952479E+04   4.29579400014115308E+04
             4.29583651126168843E+04   4.29587821279485361E+04   4.29591942483128660E+04   4.29596046709285947E+04   4.29600166046343074E+04
             4.29604328903848655E+04   4.29608550318997441E+04   4.29612841166464787E+04   4.29617210907161571E+04   4.29621669670782212E+04
             4.29626230895653352E+04   4.29630902408752881E+04   4.29635664317761693E+04   4.29640491536925911E+04   4.29645362421973041E+04
             4.29650256130576381E+04   4.29655150352857891E+04   4.29660029906862401E+04   4.29664909700907301E+04   4.29669811786343853E+04
             4.29674757979096103E+04   4.29679769870602249E+04   4.29684869141785312E+04   4.29690073709801582E+04   4.29695386695606212E+04
             4.29700807295835693E+04   4.29706334288112339E+04   4.29711966427809530E+04   4.29717702933437395E+04   4.29723542339552441E+04
             4.29729480326496050E+04   4.29735512156118930E+04   4.29741633804620069E+04   4.29747841289296994E+04   4.29754130204435496E+04
             4.29760499908647398E+04   4.29766965381841364E+04   4.29773545304939762E+04   4.29780258186529027E+04   4.29787122372279409E+04
             4.29794156310452236E+04   4.29801381615971768E+04   4.29808833143868687E+04   4.29816548847828453E+04   4.29824566353092669E+04
             4.29832923241885073E+04   4.29841657341800601E+04   4.29850798700960877E+04   4.29860345891706966E+04   4.29870289834857685E+04
             4.29880621631507165E+04   4.29891332217245072E+04   4.29902411159076655E+04   4.29913840557521253E+04   4.29925572835952698E+04
             4.29937553117417410E+04   4.29949725894355797E+04   4.29962035854542773E+04   4.29974427391878853E+04   4.29986851870687897E+04
             4.29999286214545064E+04   4.30011713383637762E+04   4.30024113974227366E+04   4.30036469181765860E+04   4.30048761958500399E+04
             4.30060981619953018E+04   4.30073139046777360E+04   4.30085252462153294E+04   4.30097342893692839E+04   4.30109432146274266E+04
             4.30121540429568558E+04   4.30133684213642773E+04   4.30145864535738438E+04   4.30158078356628976E+04   4.30170321310334402E+04
             4.30182588966764743E+04   4.30194876210947259E+04   4.30207176595230994E+04   4.30219476192624716E+04   4.30231759584054525E+04
             4.30244011850844108E+04   4.30256221598780030E+04   4.30268148827057739E+04
 ETA=    8   4.27971667871977916E+04   4.28032496634789059E+04   4.28093519653486146E+04   4.28153785673255989E+04   4.28212840109893077E+04
             4.28270268047409554E+04   4.28325710760025613E+04   4.28378917804720040E+04   4.28429953982110819E+04   4.28478971640207819E+04
             4.28526123417963609E+04   4.28571564349636610E+04   4.28615445602489708E+04   4.28657906275780115E+04   4.28699032388621563E+04
             4.28738897502537948E+04   4.28777570984979466E+04   4.28815120700227853E+04   4.28851610278036314E+04   4.28887093066278758E+04
             4.28921588140684471E+04   4.28955104398839030E+04   4.28987649491418997E+04   4.29019229806783842E+04   4.29049850512066769E+04
             4.29079514289538856E+04   4.29108214009496878E+04   4.29135940580952592E+04   4.29162683702349022E+04   4.29188433716410800E+04
             4.29213179241704929E+04   4.29236912769603950E+04   4.29259637292246189E+04   4.29281360133720154E+04   4.29302088600693896E+04
             4.29321830195520888E+04   4.29340588674659884E+04   4.29358381397791818E+04   4.29375282907068104E+04   4.29391379303430876E+04
             4.29406751832102891E+04   4.29421479393684931E+04   4.29435641327836565E+04   4.29449308872364127E+04   4.29462523320929540E+04
             4.29475318551403398E+04   4.29487728575542496E+04   4.29499786714971706E+04   4.29511524897187410E+04   4.29522977121355725E+04
             4.29534189193250568E+04   4.29545207609553909E+04   4.29556074062046318E+04   4.29566831499285909E+04   4.29577529395452875E+04
             4.29588203025243856E+04   4.29598817934202671E+04   4.29609326816360990E+04   4.29619689624017483E+04   4.29629868382876739E+04
             4.29639821797635013E+04   4.29649514900764698E+04   4.29658940740595863E+04   4.29668098251695701E+04   4.29676984993230217E+04
             4.29685597876862084E+04   4.29693933733075755E+04   4.29701985789197788E+04   4.29709732771822964E+04   4.29717150660634652E+04
             4.29724217335954163E+04   4.29730909655882278E+04   4.29737200620354342E+04   4.29743074831613121E+04   4.29748571764925146E+04
             4.29753741942410343E+04   4.29758631657156729E+04   4.29763285901045383E+04   4.29767751815686788E+04   4.29772074020235814E+04
             4.29776285417911422E+04   4.29780416422740673E+04   4.29784498240014946E+04   4.29788562113204607E+04   4.29792639006401077E+04
             4.29796756394666372E+04   4.29800929470160481E+04   4.29805169515801754E+04   4.29809486039656040E+04   4.29813889419261686E+04
             4.29818393938759909E+04   4.29823008393036580E+04   4.29827712447296653E+04   4.29832480521873731E+04   4.29837290982782943E+04
             4.29842123035761470E+04   4.29846954059813506E+04   4.29851768454653502E+04   4.29856581300287871E+04   4.29861414829540663E+04
             4.29866290919555686E+04   4.29871231158727678E+04   4.29876257232901262E+04   4.29881387086262112E+04   4.29886624042760595E+04
             4.29891967519256650E+04   4.29897416416913475E+04   4.29902969651176900E+04   4.29908626825714164E+04   4.29914386834689067E+04
             4.29920245063993789E+04   4.29926196402437054E+04   4.29932236663314179E+04   4.29938361703461123E+04   4.29944566795104038E+04
             4.29950850936444986E+04   4.29957228987054114E+04   4.29963719519530496E+04   4.29970340806019231E+04   4.29977110946670728E+04
             4.29984048113358440E+04   4.29991173678967461E+04   4.29998522228987276E+04   4.30006131488759856E+04   4.30014038811416394E+04
             4.30022281594329543E+04   4.30030897662395510E+04   4.30039917189331318E+04   4.30049338912990061E+04   4.30059153963930730E+04
             4.30069353877703252E+04   4.30079929971319798E+04   4.30090872158995408E+04   4.30102162841222525E+04   4.30113755344723468E+04
             4.30125595636951766E+04   4.30137629076003795E+04   4.30149800941193607E+04   4.30162056089805046E+04   4.30174346130379490E+04
             4.30186648822632706E+04   4.30198947960006335E+04   4.30211224968888928E+04   4.30223461994439858E+04   4.30235643635886227E+04
             4.30247760815271758E+04   4.30259824379722922E+04   4.30271852215474937E+04   4.30283865236353158E+04   4.30295885055271647E+04
             4.30307931210908428E+04   4.30320019399661178E+04   4.30332150889247860E+04   4.30344322913509241E+04   4.30356531459472390E+04
             4.30368772217862570E+04   4.30381040346242080E+04   4.30393329486334114E+04   4.30405626130608071E+04   4.30417915011521181E+04
             4.30430180695783711E+04   4.30442411337819940E+04   4.30454348511073695E+04
 ETA=    9   4.28187348488432617E+04   4.28248028643371581E+04   4.28308823070310391E+04   4.28368747390504213E+04   4.28427373998029216E+04
             4.28484312795944352E+04   4.28539226734307085E+04   4.28591881056413986E+04   4.28642350495702049E+04   4.28690794210066742E+04
             4.28737370571242209E+04   4.28782237940112027E+04   4.28825548499846627E+04   4.28867440691610827E+04   4.28908000007272785E+04
             4.28947300210908579E+04   4.28985411730552078E+04   4.29022402864824908E+04   4.29058338084829229E+04   4.29093272374055741E+04
             4.29127227267380222E+04   4.29160213304993522E+04   4.29192238832268486E+04   4.29223311391049865E+04   4.29253437480886860E+04
             4.29282621088297528E+04   4.29310856563451598E+04   4.29338136561780120E+04   4.29364452664856799E+04   4.29389796954986159E+04
             4.29414159577428582E+04   4.29437534064505016E+04   4.29459923750677408E+04   4.29481335664867293E+04   4.29501776278330362E+04
             4.29521251540555531E+04   4.29539763213059923E+04   4.29557326161338278E+04   4.29574012184568273E+04   4.29589904686668960E+04
             4.29605082653406935E+04   4.29619623102240294E+04   4.29633604029189519E+04   4.29647095707015105E+04   4.29660138712258267E+04
             4.29672766216754171E+04   4.29685011389692590E+04   4.29696906631770398E+04   4.29708482432699238E+04   4.29719771256844324E+04
             4.29730818394647649E+04   4.29741670417430942E+04   4.29752369098435956E+04   4.29762957762746519E+04   4.29773487045927614E+04
             4.29783994011117684E+04   4.29794445547592768E+04   4.29804795267286536E+04   4.29815004107050408E+04   4.29825034736555899E+04
             4.29834846124658216E+04   4.29844403053296192E+04   4.29853698796760073E+04   4.29862732558951902E+04   4.29871502319066494E+04
             4.29880005364689714E+04   4.29888239191337052E+04   4.29896197655730575E+04   4.29903859293260830E+04   4.29911199529430087E+04
             4.29918195707335399E+04   4.29924823976812404E+04   4.29931056194549892E+04   4.29936875695000563E+04   4.29942321450388554E+04
             4.29947443682038283E+04   4.29952288122159953E+04   4.29956899255655662E+04   4.29961323889098130E+04   4.29965606455731177E+04
             4.29969779287113124E+04   4.29973872219612313E+04   4.29977915806404853E+04   4.29981940654515129E+04   4.29985976872188912E+04
             4.29990051135094254E+04   4.29994178531895523E+04   4.29998370427380578E+04   4.30002636251761505E+04   4.30006986454521830E+04
             4.30011435834385775E+04   4.30015993907585871E+04   4.30020640256438419E+04   4.30025349185726009E+04   4.30030099221314740E+04
             4.30034869770605437E+04   4.30039638173234271E+04   4.30044388641234473E+04   4.30049136281324609E+04   4.30053903362998608E+04
             4.30058711774887561E+04   4.30063583098999879E+04   4.30068539006071514E+04   4.30073597445116611E+04   4.30078761886002030E+04
             4.30084031926627067E+04   4.30089406602519739E+04   4.30094884989170314E+04   4.30100466973966104E+04   4.30106151758885753E+04
             4.30111934562790484E+04   4.30117810031449335E+04   4.30123773811913197E+04   4.30129821605629477E+04   4.30135948439310669E+04
             4.30142153011856863E+04   4.30148450016990682E+04   4.30154857875809757E+04   4.30161394658255376E+04   4.30168078248836973E+04
             4.30174926570200623E+04   4.30181960755446707E+04   4.30189215130946322E+04   4.30196727183276962E+04   4.30204534004487359E+04
             4.30212672778378328E+04   4.30221181258075958E+04   4.30230089693609916E+04   4.30239397040265758E+04   4.30249094679812479E+04
             4.30259174507691059E+04   4.30269628165195609E+04   4.30280445846465809E+04   4.30291610185650570E+04   4.30303075201699976E+04
             4.30314787538861347E+04   4.30326693263620546E+04   4.30338738165541508E+04   4.30350867492310863E+04   4.30363033000613286E+04
             4.30375212940527053E+04   4.30387391650888167E+04   4.30399551252326346E+04   4.30411674698238130E+04   4.30423748037511687E+04
             4.30435763744419601E+04   4.30447733100988262E+04   4.30459674077085801E+04   4.30471607672196988E+04   4.30483555500332877E+04
             4.30495536689238725E+04   4.30507566347348256E+04   4.30519645769168856E+04   4.30531772324985432E+04   4.30543942248209059E+04
             4.30556151349975116E+04   4.30568394888768162E+04   4.30580666507579590E+04   4.30592952869036963E+04   4.30605238707881872E+04
             4.30617507827118752E+04   4.30629747611433995E+04   4.30641685375660527E+04
 ETA=   10   4.28401659339446924E+04   4.28462240163214883E+04   4.28522871947967506E+04   4.28582534553398145E+04   4.28640820635014534E+04
             4.28697359977538581E+04   4.28751833597588702E+04   4.28804020253908820E+04   4.28854003027046201E+04   4.28901947357689787E+04
             4.28948017909703776E+04   4.28992377424475999E+04   4.29035180238309185E+04   4.29076564678697687E+04   4.29116615307655884E+04
             4.29155405748206540E+04   4.29193007880662626E+04   4.29229490623813181E+04   4.29264919097916209E+04   4.29299350085206170E+04
             4.29332808692693143E+04   4.29365307867761730E+04   4.29396856496406690E+04   4.29427463000425123E+04   4.29457135227194958E+04
             4.29485878377542904E+04   4.29513687887213018E+04   4.29540557797944202E+04   4.29566481417494069E+04   4.29591452424697854E+04
             4.29615462411079934E+04   4.29638505855456096E+04   4.29660586453048454E+04   4.29681711075484782E+04   4.29701885718927733E+04
             4.29721115170384510E+04   4.29739399511588563E+04   4.29756751509475944E+04   4.29773240423220996E+04   4.29788947118780488E+04
             4.29803948162649758E+04   4.29818318553130957E+04   4.29832134726921286E+04   4.29845465862701531E+04   4.29858351966130722E+04
             4.29870825684583833E+04   4.29882919528362909E+04   4.29894665202153337E+04   4.29906092321767283E+04   4.29917232095090731E+04
             4.29928128613929366E+04   4.29938827771775759E+04   4.29949371223606577E+04   4.29959802357968510E+04   4.29970172231873075E+04
             4.29980519113300470E+04   4.29990811958813210E+04   4.30001006050156720E+04   4.30011063535413487E+04   4.30020947964905572E+04
             4.30030619000999577E+04   4.30040041583503189E+04   4.30049208896351411E+04   4.30058120131890610E+04   4.30066773559390131E+04
             4.30075166766457332E+04   4.30083297563822780E+04   4.30091160264875725E+04   4.30098733697323914E+04   4.30105993285693839E+04
             4.30112916058683913E+04   4.30119477716596957E+04   4.30125649458079351E+04   4.30131413756602051E+04   4.30136808705591466E+04
             4.30141883796793481E+04   4.30146684033948477E+04   4.30151253217868361E+04   4.30155637478030912E+04   4.30159880757289429E+04
             4.30164015050548915E+04   4.30168069861133408E+04   4.30172075193606870E+04   4.30176061101476662E+04   4.30180057171353328E+04
             4.30184089500674600E+04   4.30188172727909114E+04   4.30192317893965155E+04   4.30196534247545278E+04   4.30200832160191203E+04
             4.30205226471610877E+04   4.30209727028058187E+04   4.30214313796552669E+04   4.30218961478005222E+04   4.30223648904807997E+04
             4.30228355826198676E+04   4.30233059912047756E+04   4.30237745511785542E+04   4.30242427554591632E+04   4.30247128116725144E+04
             4.30251869046098363E+04   4.30256671917652493E+04   4.30261558383999509E+04   4.30266546385850088E+04   4.30271639468543217E+04
             4.30276837357162076E+04   4.30282139257596064E+04   4.30287544416068049E+04   4.30293052843691039E+04   4.30298663928493697E+04
             4.30304372911843820E+04   4.30310174390493266E+04   4.30316063832058426E+04   4.30322036775491433E+04   4.30328088119801541E+04
             4.30334216376238110E+04   4.30340435984391952E+04   4.30346765127904582E+04   4.30353221704341267E+04   4.30359823420441171E+04
             4.30366587975818184E+04   4.30373536265046932E+04   4.30380702359132483E+04   4.30388123492170562E+04   4.30395836515275587E+04
             4.30403878376841021E+04   4.30412286647192814E+04   4.30421091565427341E+04   4.30430292402154446E+04   4.30439880890863424E+04
             4.30449849226470324E+04   4.30460189330489375E+04   4.30470891655009691E+04   4.30481939058432617E+04   4.30493286063046326E+04
             4.30504879827368495E+04   4.30516666980740847E+04   4.30528593764825637E+04   4.30540605832196452E+04   4.30552655069925167E+04
             4.30564719833706768E+04   4.30576784663649523E+04   4.30588832229674808E+04   4.30600846131770304E+04   4.30612813490046101E+04
             4.30624728095117825E+04   4.30636602125460195E+04   4.30648454104830016E+04   4.30660305257838190E+04   4.30672177345863674E+04
             4.30684089400453304E+04   4.30696056193233890E+04   4.30708078815695480E+04   4.30720154568379949E+04   4.30732279886427496E+04
             4.30744450729908640E+04   4.30756662443156456E+04   4.30768908656462881E+04   4.30781176176454828E+04   4.30793449684524967E+04
             4.30805712385335428E+04   4.30817950830772970E+04   4.30829881669183960E+04
 ETA=   11   4.28614804576043753E+04   4.28675325308975516E+04   4.28735842459136111E+04   4.28795299876054196E+04   4.28853307818744797E+04
             4.28909513706982907E+04   4.28963614630091033E+04   4.29015401511302771E+04   4.29064964161425232E+04   4.29112473145573458E+04
             4.29158099118738828E+04   4.29202009678453178E+04   4.29244362340680673E+04   4.29285296031720500E+04   4.29324893965823940E+04
             4.29363228992807126E+04   4.29400374468005830E+04   4.29436399833186151E+04   4.29471370219609744E+04   4.29505343771876214E+04
             4.29538350014694515E+04   4.29570405108278574E+04   4.29601518472245734E+04   4.29631699193432796E+04   4.29660956509445750E+04
             4.29689296882163326E+04   4.29716716497236630E+04   4.29743210471563943E+04   4.29768773700588426E+04   4.29793401361563956E+04
             4.29817086450884890E+04   4.29839824356320823E+04   4.29861619136338486E+04   4.29882477588409020E+04   4.29902405572883799E+04
             4.29921407083213708E+04   4.29939480808746230E+04   4.29956637771130772E+04   4.29972944994730497E+04   4.29988481039385078E+04
             4.30003319941424343E+04   4.30017534567903058E+04   4.30031199597759696E+04   4.30044383010759775E+04   4.30057124368748191E+04
             4.30069455968569891E+04   4.30081409760563984E+04   4.30093016928207799E+04   4.30104306811838615E+04   4.30115309778129958E+04
             4.30126067990642841E+04   4.30136625855984312E+04   4.30147024697159432E+04   4.30157307698506338E+04   4.30167525525406454E+04
             4.30177716905708585E+04   4.30187853562485325E+04   4.30197893256973985E+04   4.30207799642700411E+04   4.30217537411750236E+04
             4.30227067442243133E+04   4.30236355325216355E+04   4.30245393880752090E+04   4.30254181990674624E+04   4.30262718131858928E+04
             4.30271000128601736E+04   4.30279025708745321E+04   4.30286789361383926E+04   4.30294270726885443E+04   4.30301445819014625E+04
             4.30308291572716334E+04   4.30314783461438274E+04   4.30320892537224936E+04   4.30326600858489910E+04   4.30331945233150764E+04
             4.30336973931571411E+04   4.30341731032216630E+04   4.30346259459685680E+04   4.30350604269570395E+04   4.30354808562959661E+04
             4.30358904246289021E+04   4.30362920772011494E+04   4.30366887672425510E+04   4.30370834526540275E+04   4.30374790767818049E+04
             4.30378782208736011E+04   4.30382822634086697E+04   4.30386922313028335E+04   4.30391090209374088E+04   4.30395336482773710E+04
             4.30399675478875142E+04   4.30404116888162534E+04   4.30408641560124815E+04   4.30413225142711744E+04   4.30417846930624655E+04
             4.30422487143627441E+04   4.30427124211466435E+04   4.30431743012934821E+04   4.30436358067604087E+04   4.30440990983201118E+04
             4.30445663506933124E+04   4.30450397206723865E+04   4.30455213719069143E+04   4.30460130973347914E+04   4.30465152507693929E+04
             4.30470278112540545E+04   4.30475507210992291E+04   4.30480839237086620E+04   4.30486274134337291E+04   4.30491811294365107E+04
             4.30497446206153036E+04   4.30503173636297797E+04   4.30508988866415748E+04   4.30514887250782776E+04   4.30520863710265403E+04
             4.30526916715959524E+04   4.30533060346195052E+04   4.30539312437034532E+04   4.30545690732692310E+04   4.30552212804436422E+04
             4.30558896142525773E+04   4.30565761405419980E+04   4.30572842394872496E+04   4.30580176081114332E+04   4.30587799088413158E+04
             4.30595748116972027E+04   4.30604060414295018E+04   4.30612766085052863E+04   4.30621864842117793E+04   4.30631348900751327E+04
             4.30641210731361716E+04   4.30651442505010054E+04   4.30662034966095089E+04   4.30672971237722013E+04   4.30684206220120905E+04
             4.30695687458382745E+04   4.30707362026699193E+04   4.30719176578411643E+04   4.30731077256902063E+04   4.30743016145101719E+04
             4.30754971324938451E+04   4.30766927177192265E+04   4.30778866779769160E+04   4.30790774223656263E+04   4.30802637233831556E+04
             4.30814450537482917E+04   4.30826227639889039E+04   4.30837988094127504E+04   4.30849753494319521E+04   4.30861545873395080E+04
             4.30873384533824646E+04   4.30885284230336547E+04   4.30897245624556672E+04   4.30909265700618125E+04   4.30921341027744420E+04
             4.30933467729026379E+04   4.30945641217549273E+04   4.30957855117466170E+04   4.30970096303484170E+04   4.30982349383903565E+04
             4.30994597031080630E+04   4.31006825105691023E+04   4.31018742599161051E+04
 ETA=   12   4.28826945408049432E+04   4.28887441987311031E+04   4.28947881241976502E+04   4.29007173094836326E+04   4.29064945587062393E+04
             4.29120863679012764E+04   4.29174640205617034E+04   4.29226078209370098E+04   4.29275273463515186E+04   4.29322400587136726E+04
             4.29367635336403328E+04   4.29411150022376896E+04   4.29453106043104126E+04   4.29493643673184270E+04   4.29532844408697492E+04
             4.29570779418690654E+04   4.29607523008157441E+04   4.29643144668031819E+04   4.29677708464295720E+04   4.29711272762457811E+04
             4.29743871729231905E+04   4.29775525375573125E+04   4.29806243917218380E+04   4.29836037116473817E+04   4.29864915789564111E+04
             4.29892887953620884E+04   4.29919950443173802E+04   4.29946099285689634E+04   4.29971330866497519E+04   4.29995641807555512E+04
             4.30019026505444999E+04   4.30041481283883113E+04   4.30063010592361607E+04   4.30083621210546189E+04   4.30103319147174116E+04
             4.30122107933849766E+04   4.30139985096055243E+04   4.30156960157065987E+04   4.30173098228686795E+04   4.30188475830690368E+04
             4.30203164437374508E+04   4.30217234715085506E+04   4.30230759438003297E+04   4.30243805315321006E+04   4.30256411612534066E+04
             4.30268610461144417E+04   4.30280433312239693E+04   4.30291910960253881E+04   4.30303073017627175E+04   4.30313949497930007E+04
             4.30324579978250185E+04   4.30335006596645107E+04   4.30345270064528886E+04   4.30355413083568419E+04   4.30365485161794059E+04
             4.30375524694696287E+04   4.30385506694572105E+04   4.30395392118831223E+04   4.30405146482579366E+04   4.30414735922062464E+04
             4.30424123083121740E+04   4.30433274751859790E+04   4.30442183183513334E+04   4.30450846680502873E+04   4.30459263859892671E+04
             4.30467432720138750E+04   4.30475350514625898E+04   4.30483011554474142E+04   4.30490396768474093E+04   4.30497483314473502E+04
             4.30504248277669903E+04   4.30510667124937972E+04   4.30516711234474933E+04   4.30522362681100349E+04   4.30527656636440006E+04
             4.30532639693762103E+04   4.30537354774242776E+04   4.30541843711422989E+04   4.30546150080048683E+04   4.30550315769052686E+04
             4.30554372829424901E+04   4.30558350938125004E+04   4.30562279229324340E+04   4.30566186891277903E+04   4.30570103555940732E+04
             4.30574055070481700E+04   4.30578053971526315E+04   4.30582109323162076E+04   4.30586229678386517E+04   4.30590424840936466E+04
             4.30594708162753304E+04   4.30599088687072799E+04   4.30603548574533124E+04   4.30608064910498724E+04   4.30612617627137006E+04
             4.30617187554116827E+04   4.30621754309734388E+04   4.30626303720418509E+04   4.30630849686806177E+04   4.30635413094562537E+04
             4.30640015517417560E+04   4.30644678511525344E+04   4.30649423690912881E+04   4.30654268972122009E+04   4.30659217809294350E+04
             4.30664269995958020E+04   4.30669425217624230E+04   4.30674683108761019E+04   4.30680043364866215E+04   4.30685505175721919E+04
             4.30691064479954075E+04   4.30696716413043541E+04   4.30702456074049333E+04   4.30708278613881048E+04   4.30714179123030408E+04
             4.30720156196500102E+04   4.30726223457467859E+04   4.30732398295561143E+04   4.30738698309459069E+04   4.30745140972836889E+04
             4.30751743571391708E+04   4.30758526522597385E+04   4.30765523334590471E+04   4.30772770691238547E+04   4.30780304995742699E+04
             4.30788162682019829E+04   4.30796380532356052E+04   4.30804988372489897E+04   4.30813986472366305E+04   4.30823367658629722E+04
             4.30833124684111899E+04   4.30843249962658156E+04   4.30853734597808798E+04   4.30864562060466560E+04   4.30875687577358403E+04
             4.30887059016049534E+04   4.30898623809666242E+04   4.30910329004337909E+04   4.30922121351015521E+04   4.30933953249424012E+04
             4.30945802181152030E+04   4.30957652021657923E+04   4.30969486106512122E+04   4.30981288855578387E+04   4.30993048125830901E+04
             4.31004759124527263E+04   4.31016437005701446E+04   4.31028102765189833E+04   4.31039778537598540E+04   4.31051486767750321E+04
             4.31063247413597855E+04   4.31075075594637528E+04   4.31086971383903801E+04   4.31098931235328055E+04   4.31110951758598821E+04
             4.31123029221621182E+04   4.31135159086160929E+04   4.31147334962600216E+04   4.31159543712614031E+04   4.31171769822073184E+04
             4.31183995431443618E+04   4.31196205799462768E+04   4.31208103650222693E+04
 ETA=   13   4.29038228059294343E+04   4.29098729637025172E+04   4.29159117092604647E+04   4.29218266958662280E+04   4.29275827297956712E+04
             4.29331482339095892E+04   4.29384961961533700E+04   4.29436082865183271E+04   4.29484947569437209E+04   4.29531734507765141E+04
             4.29576623510195859E+04   4.29619790814161533E+04   4.29661401700271235E+04   4.29701598179882421E+04   4.29740459558444200E+04
             4.29778054094465406E+04   4.29814455803415258E+04   4.29849733237900073E+04   4.29883947892027863E+04   4.29917156452106356E+04
             4.29949396929993236E+04   4.29980693338207275E+04   4.30011057204420649E+04   4.30040499351893450E+04   4.30069032680903038E+04
             4.30096667465631035E+04   4.30123401585561005E+04   4.30149232137020081E+04   4.30174156998934777E+04   4.30198174221746158E+04
             4.30221279584954755E+04   4.30243470390557341E+04   4.30264751531680813E+04   4.30285129813897438E+04   4.30304611588848493E+04
             4.30323200203443484E+04   4.30340892208203077E+04   4.30357695751890205E+04   4.30373674258733517E+04   4.30388902444418345E+04
             4.30403449302274676E+04   4.30417383302304370E+04   4.30430775259946022E+04   4.30443690592850908E+04   4.30456168475142986E+04
             4.30468241103478285E+04   4.30479939523694557E+04   4.30491294277791967E+04   4.30502335680039832E+04   4.30513093882131434E+04
             4.30523605419076775E+04   4.30533909523006441E+04   4.30544045916924661E+04   4.30554056473455785E+04   4.30563988897673553E+04
             4.30573880515904093E+04   4.30583709857615177E+04   4.30593441540789354E+04   4.30603043295834286E+04   4.30612483022352972E+04
             4.30621725627720298E+04   4.30630739623504487E+04   4.30639516608689228E+04   4.30648054121509631E+04   4.30656350843109685E+04
             4.30664404869988939E+04   4.30672212667641434E+04   4.30679768012040149E+04   4.30687053460781972E+04   4.30694047749868114E+04
             4.30700728398358115E+04   4.30707071117605446E+04   4.30713048009220220E+04   4.30718641540133031E+04   4.30723885015689957E+04
             4.30728823013390429E+04   4.30733497042621239E+04   4.30737947608493705E+04   4.30742216442326171E+04   4.30746343872522120E+04
             4.30750362265765943E+04   4.30754301737590285E+04   4.30758191113148787E+04   4.30762059287943848E+04   4.30765936365304151E+04
             4.30769848512634271E+04   4.30773806713701051E+04   4.30777818485542011E+04   4.30781891811505629E+04   4.30786035970088924E+04
             4.30790262939543318E+04   4.30794580706299166E+04   4.30798973023311482E+04   4.30803418753987789E+04   4.30807898660565188E+04
             4.30812394343629785E+04   4.30816886967116807E+04   4.30821363685887409E+04   4.30825837655270734E+04   4.30830328877760621E+04
             4.30834858674758871E+04   4.30839448577495859E+04   4.30844120154022094E+04   4.30848891302277771E+04   4.30853765344492058E+04
             4.30858742031557776E+04   4.30863821344274547E+04   4.30869003118204055E+04   4.30874286679912839E+04   4.30879670838098245E+04
             4.30885152099260231E+04   4.30890726090381722E+04   4.30896387740969076E+04   4.30902131994297306E+04   4.30907954218662635E+04
             4.30913853279617979E+04   4.30919842298426520E+04   4.30925938168940920E+04   4.30932158346639990E+04   4.30938520238660785E+04
             4.30945040930334217E+04   4.30951740589906985E+04   4.30958652404556560E+04   4.30965812735842410E+04   4.30973257760355336E+04
             4.30981023615684826E+04   4.30989146502618241E+04   4.30997655827763301E+04   4.31006552482752450E+04   4.31015829995738313E+04
             4.31025481426292390E+04   4.31035499442512082E+04   4.31045875574937309E+04   4.31056593738343654E+04   4.31067609500454564E+04
             4.31078871057786819E+04   4.31090326156457595E+04   4.31101922243587760E+04   4.31113606787443641E+04   4.31125332647314644E+04
             4.31137076474166461E+04   4.31148821348874044E+04   4.31160550686912829E+04   4.31172249046269935E+04   4.31183903994004650E+04
             4.31195510748737142E+04   4.31207086253342786E+04   4.31218653210018965E+04   4.31230234474628523E+04   4.31241853064086463E+04
             4.31253529940510853E+04   4.31265280988141167E+04   4.31277105661214518E+04   4.31288999779660444E+04   4.31300959905084819E+04
             4.31312982416217928E+04   4.31325062818355655E+04   4.31337194693931524E+04   4.31349364848053083E+04   4.31361557579950750E+04
             4.31373754508385173E+04   4.31385940291014849E+04   4.31397813774623501E+04
 ETA=   14   4.29248787183104869E+04   4.29309320867232818E+04   4.29369675210275745E+04   4.29428695024042536E+04   4.29486051636666234E+04
             4.29541451544746014E+04   4.29594644182292323E+04   4.29645462588928785E+04   4.29694018283854311E+04   4.29740494265627858E+04
             4.29785073663942967E+04   4.29827935551052215E+04   4.29869248483879928E+04   4.29909156303586060E+04   4.29947735835029889E+04
             4.29985051232497281E+04   4.30021174422367185E+04   4.30056171551703956E+04   4.30090099713880409E+04   4.30123011429725084E+04
             4.30154946520380981E+04   4.30185932349361901E+04   4.30215982310273175E+04   4.30245108941427316E+04   4.30273328011959456E+04
             4.30300653098652037E+04   4.30327084097875922E+04   4.30352619741663948E+04   4.30377259560568054E+04   4.30401003078463618E+04
             4.30423847411898387E+04   4.30445790869258126E+04   4.30466838874692403E+04   4.30486998316813260E+04   4.30506275986939290E+04
             4.30524675257429553E+04   4.30542191896267177E+04   4.30558832706816393E+04   4.30574659422619297E+04   4.30589745039877962E+04
             4.30604156244848491E+04   4.30617959376670769E+04   4.30631223329815912E+04   4.30644012250459491E+04   4.30656365482060428E+04
             4.30668315573303626E+04   4.30679893343982621E+04   4.30691129279510787E+04   4.30702054672375380E+04   4.30712700245008309E+04
             4.30723099340954723E+04   4.30733287920793737E+04   4.30743304274078764E+04   4.30753189027584594E+04   4.30762987588619799E+04
             4.30772735612879696E+04   4.30782415066709291E+04   4.30791994374537899E+04   4.30801443764396681E+04   4.30810733198012167E+04
             4.30819830218992356E+04   4.30828705523489334E+04   4.30837350113916982E+04   4.30845760718322708E+04   4.30853935999826281E+04
             4.30861874061071430E+04   4.30869570403017642E+04   4.30877017983745682E+04   4.30884201113465460E+04   4.30891100330488916E+04
             4.30897693884864857E+04   4.30903958006616231E+04   4.30909865823712826E+04   4.30915400487265069E+04   4.30920593347096219E+04
             4.30925486777676924E+04   4.30930120632090038E+04   4.30934533843880054E+04   4.30938766034282889E+04   4.30942855690646684E+04
             4.30946835554233621E+04   4.30950736278973345E+04   4.30954586480879225E+04   4.30958414871872155E+04   4.30962252167094994E+04
             4.30966125045836816E+04   4.30970042794196925E+04   4.30974011205665738E+04   4.30978037518188430E+04   4.30982130301803336E+04
             4.30986299948804808E+04   4.30990553120356271E+04   4.30994875256211963E+04   4.30999247135189289E+04   4.31003650534641929E+04
             4.31008067992330980E+04   4.31012482441544125E+04   4.31016882637014496E+04   4.31021280992082320E+04   4.31025696607906502E+04
             4.31030150486842394E+04   4.31034664119527879E+04   4.31039258989523369E+04   4.31043952966915167E+04   4.31048749240454490E+04
             4.31053647506453635E+04   4.31058648056950551E+04   4.31063750916170393E+04   4.31068955015978427E+04   4.31074258675680248E+04
             4.31079658961493624E+04   4.31085151990298982E+04   4.31090732537190925E+04   4.31096395345037818E+04   4.31102136099591080E+04
             4.31107954029100074E+04   4.31113861776866543E+04   4.31119875768624697E+04   4.31126013323664592E+04   4.31132291812324474E+04
             4.31138728131566459E+04   4.31145342200591913E+04   4.31152166857755510E+04   4.31159238097591297E+04   4.31166591848494863E+04
             4.31174263907889108E+04   4.31182289820905935E+04   4.31190698462227592E+04   4.31199491340822060E+04   4.31208662706792966E+04
             4.31218205955216181E+04   4.31228114023222661E+04   4.31238378916939764E+04   4.31248985070272029E+04   4.31259888454996908E+04
             4.31271037663294701E+04   4.31282380761493041E+04   4.31293865646598133E+04   4.31305440590145445E+04   4.31317059056859944E+04
             4.31328696766788271E+04   4.31340335826637966E+04   4.31351959530478343E+04   4.31363552354470812E+04   4.31375101238951320E+04
             4.31386600989330618E+04   4.31398070267977237E+04   4.31409533536733652E+04   4.31421014525351056E+04   4.31432536972386006E+04
             4.31444123107790947E+04   4.31455789929385937E+04   4.31467536394930430E+04   4.31479357734704317E+04   4.31491250406340769E+04
             4.31503210871693082E+04   4.31515234681098736E+04   4.31527315374795726E+04   4.31539439658850170E+04   4.31551591585301794E+04
             4.31563752249603422E+04   4.31575905670810535E+04   4.31587746753246320E+04
 ETA=   15   4.29458754524995675E+04   4.29519350748895740E+04   4.29579695178706461E+04   4.29638602292298892E+04   4.29695768516698299E+04
             4.29750924224024711E+04   4.29803839709624008E+04   4.29854366172846712E+04   4.29902626649053200E+04   4.29948810100352057E+04
             4.29993102847220871E+04   4.30035686288388752E+04   4.30076732076823610E+04   4.30116386675369431E+04   4.30154725435735745E+04
             4.30191808497771417E+04   4.30227704471357865E+04   4.30262476015163556E+04   4.30296174404931007E+04   4.30328845579945264E+04
             4.30360528043903978E+04   4.30391250714238413E+04   4.30421028822035005E+04   4.30449876884204568E+04   4.30477813956811369E+04
             4.30504857702282461E+04   4.30531011208860218E+04   4.30556275638164225E+04   4.30580652442450591E+04   4.30604142744701676E+04
             4.30626744986557533E+04   4.30648458555240286E+04   4.30669289594454240E+04   4.30689245210122972E+04   4.30708332645993869E+04
             4.30726555413799433E+04   4.30743908697110382E+04   4.30760397910514293E+04   4.30776082754963136E+04   4.30791034283948320E+04
             4.30805317027059355E+04   4.30818995250640655E+04   4.30832136004031199E+04   4.30844802191068520E+04   4.30857033611286242E+04
             4.30868863496751947E+04   4.30880322731501656E+04   4.30891442037258385E+04   4.30902253837162061E+04   4.30912789773926197E+04
             4.30923080218643954E+04   4.30933157870114446E+04   4.30943059191630964E+04   4.30952823158120955E+04   4.30962492554013952E+04
             4.30972100950785389E+04   4.30981633435197436E+04   4.30991062108267142E+04   4.31000359865025166E+04   4.31009498975301103E+04
             4.31018449843961280E+04   4.31027185695123335E+04   4.31035697162354263E+04   4.31043980286701262E+04   4.31052033652598257E+04
             4.31059855277217212E+04   4.31067439682880358E+04   4.31074778858500213E+04   4.31081858738759111E+04   4.31088661621201973E+04
             4.31095166724367882E+04   4.31101351042989481E+04   4.31107188924580405E+04   4.31112664396076070E+04   4.31117806894313908E+04
             4.31122656550607862E+04   4.31127251367213685E+04   4.31131628492728560E+04   4.31135825303423844E+04   4.31139878271375565E+04
             4.31143820429512853E+04   4.31147682921692758E+04   4.31151494238048399E+04   4.31155283002814904E+04   4.31159080524829842E+04
             4.31162914052178530E+04   4.31166791222726970E+04   4.31170716137336785E+04   4.31174695144056968E+04   4.31178735947680034E+04
             4.31182847320813817E+04   4.31187034496857814E+04   4.31191284509450852E+04   4.31195579981941701E+04   4.31199903841244159E+04
             4.31204239697088633E+04   4.31208572305061898E+04   4.31212892131445406E+04   4.31217210986958453E+04   4.31221547206832911E+04
             4.31225921446409920E+04   4.31230355149545139E+04   4.31234869679847034E+04   4.31239482876365364E+04   4.31244197847220858E+04
             4.31249014267961102E+04   4.31253932746276259E+04   4.31258953479796255E+04   4.31264075084045326E+04   4.31269295377621456E+04
             4.31274611840615980E+04   4.31280020935916109E+04   4.31285517281276771E+04   4.31291095423455190E+04   4.31296751321832562E+04
             4.31302484580627934E+04   4.31308307463037272E+04   4.31314236038477975E+04   4.31320287517445977E+04   4.31326479271029239E+04
             4.31332828039264277E+04   4.31339353512437156E+04   4.31346088157241393E+04   4.31353067555377129E+04   4.31360327350839943E+04
             4.31367902947270268E+04   4.31375829201573433E+04   4.31384134382209304E+04   4.31392820544142814E+04   4.31401882601043835E+04
             4.31411314296704659E+04   4.31421108837362626E+04   4.31431258717051751E+04   4.31441748917709338E+04   4.31452535891752777E+04
             4.31463568722573400E+04   4.31474795852151365E+04   4.31486165715995157E+04   4.31497627453187597E+04   4.31509135273567008E+04
             4.31520664014876020E+04   4.31532194780072969E+04   4.31543710558278108E+04   4.31555195527156684E+04   4.31566635763658705E+04
             4.31578025319226144E+04   4.31589384314578492E+04   4.31600738806726731E+04   4.31612113477512685E+04   4.31623532886287067E+04
             4.31635020674224506E+04   4.31646595194261972E+04   4.31658255164803631E+04   4.31669995422678476E+04   4.31681812332079353E+04
             4.31693702448869153E+04   4.31705661397202712E+04   4.31717682683589010E+04   4.31729752848483040E+04   4.31741855640758586E+04
             4.31753971615268019E+04   4.31766084127012364E+04   4.31777884875833843E+04
 ETA=   16   4.29668240886619678E+04   4.29728929340963514E+04   4.29789294242306860E+04   4.29848115506277973E+04   4.29905114381743406E+04
             4.29960045034679788E+04   4.30012698493728967E+04   4.30062944658708730E+04   4.30110920321300146E+04   4.30156822147201747E+04
             4.30200840284498991E+04   4.30243158729937059E+04   4.30283952577211385E+04   4.30323372319491245E+04   4.30361494114333691E+04
             4.30398375610656149E+04   4.30434081731603655E+04   4.30468671074644590E+04   4.30502188232765329E+04   4.30534670571527604E+04
             4.30566151385058183E+04   4.30596658282129647E+04   4.30626207509805536E+04   4.30654815289281687E+04   4.30682503931521569E+04
             4.30709295584672509E+04   4.30735197821243564E+04   4.30760215229999812E+04   4.30784351631545796E+04   4.30807609990732672E+04
             4.30829990110889994E+04   4.30851492555403238E+04   4.30872124449165130E+04   4.30891893324442208E+04   4.30910806813183226E+04
             4.30928868572230713E+04   4.30946073419332242E+04   4.30962425364748051E+04   4.30977981454818437E+04   4.30992810250869079E+04
             4.31006974143003899E+04   4.31020535310564228E+04   4.31033559015062783E+04   4.31046106928785593E+04   4.31058219585100815E+04
             4.31069931236699995E+04   4.31081273212201631E+04   4.31092276834151344E+04   4.31102975724354183E+04   4.31113402675799734E+04
             4.31123585620468584E+04   4.31133554363372750E+04   4.31143343315364546E+04   4.31152989505924925E+04   4.31162532936663847E+04
             4.31172004875799030E+04   4.31181393055402514E+04   4.31190672926667394E+04   4.31199820071576250E+04   4.31208809219144969E+04
             4.31217613695549444E+04   4.31226209440623352E+04   4.31234587091275243E+04   4.31242742285190616E+04   4.31250673536608156E+04
             4.31258378729803226E+04   4.31265851552518361E+04   4.31273083040819474E+04   4.31280060414714317E+04   4.31286767444762081E+04
             4.31293184423206330E+04   4.31299289261573213E+04   4.31305057595421677E+04   4.31310474406849316E+04   4.31315567379126296E+04
             4.31320374487127265E+04   4.31324931773734424E+04   4.31329274455815103E+04   4.31333437665783131E+04   4.31337455810950050E+04
             4.31341361992565435E+04   4.31345187646987324E+04   4.31348961160965409E+04   4.31352711110199452E+04   4.31356469231567462E+04
             4.31360263252004079E+04   4.31364099392549178E+04   4.31367980289853585E+04   4.31371911348480862E+04   4.31375899335522117E+04
             4.31379951533510393E+04   4.31384071811909671E+04   4.31388248546668765E+04   4.31392465963513605E+04   4.31396708178500994E+04
             4.31400959937986336E+04   4.31405207706055153E+04   4.31409443599595324E+04   4.31413679064781827E+04   4.31417931917121678E+04
             4.31422222499772251E+04   4.31426572224049232E+04   4.31431002326459129E+04   4.31435530631761940E+04   4.31440160271468776E+04
             4.31444890984665180E+04   4.31449723701951734E+04   4.31454658797314842E+04   4.31459694732048592E+04   4.31464828911047953E+04
             4.31470058968124140E+04   4.31475381446741449E+04   4.31480790758815128E+04   4.31486281232509209E+04   4.31491848976651454E+04
             4.31497493899479159E+04   4.31503228037078079E+04   4.31509067278633665E+04   4.31515028789219141E+04   4.31521129994852599E+04
             4.31527387539017000E+04   4.31533820930207148E+04   4.31540462252450379E+04   4.31547346638147865E+04   4.31554509402417243E+04
             4.31561985501669551E+04   4.31569809099849808E+04   4.31578007822500585E+04   4.31586584155611272E+04   4.31595533559148971E+04
             4.31604850106605882E+04   4.31614527246601137E+04   4.31624557928639042E+04   4.31634927656169602E+04   4.31645593417782802E+04
             4.31656504872178266E+04   4.31667610920497536E+04   4.31678860642715008E+04   4.31690204097234455E+04   4.31701596361533884E+04
             4.31713011576408826E+04   4.31724429965546224E+04   4.31735834098520500E+04   4.31747207694291064E+04   4.31758535833001952E+04
             4.31769811580779788E+04   4.31781056112133592E+04   4.31792296737831566E+04   4.31803559053463614E+04   4.31814868449421119E+04
             4.31826249982708614E+04   4.31837723458269393E+04   4.31849287689576231E+04   4.31860937424616277E+04   4.31872669035735598E+04
             4.31884479249381548E+04   4.31896363858497207E+04   4.31908316414734218E+04   4.31920323236440163E+04   4.31932367761863716E+04
             4.31944430056766723E+04   4.31956492903203762E+04   4.31968244177147135E+04
 ETA=   17   4.29877268340935334E+04   4.29938082719455633E+04   4.29998505095503351E+04   4.30057277669752511E+04   4.30114143892512802E+04
             4.30168880037045674E+04   4.30221296579831760E+04   4.30271281550365820E+04   4.30318987297130443E+04   4.30364620120098843E+04
             4.30408375212027240E+04   4.30450439958985808E+04   4.30490993319919799E+04   4.30530190949202006E+04   4.30568112303717644E+04
             4.30604814672535431E+04   4.30640359532231014E+04   4.30674801412486777E+04   4.30708178197177986E+04   4.30740517729390776E+04
             4.30771844292811074E+04   4.30802180877108185E+04   4.30831543330932764E+04   4.30859948831645670E+04   4.30887422460146554E+04
             4.30913990826974405E+04   4.30939667293788443E+04   4.30964461041907998E+04   4.30988378934316934E+04   4.31011426174085500E+04
             4.31033604057490520E+04   4.31054914435740648E+04   4.31075365705927106E+04   4.31094966079154474E+04   4.31113723463973147E+04
             4.31131641589100473E+04   4.31148715126610914E+04   4.31164946757087746E+04   4.31180390115780392E+04   4.31195110493211687E+04
             4.31209167967259928E+04   4.31222622501655060E+04   4.31235537542634047E+04   4.31247973484574686E+04   4.31259971809813869E+04
             4.31271568069824934E+04   4.31282794429783098E+04   4.31293683170322256E+04   4.31304269136288858E+04   4.31314586377361047E+04
             4.31324661115178169E+04   4.31334520888288098E+04   4.31344198062819487E+04   4.31353727622780716E+04   4.31363146797734662E+04
             4.31372484522276936E+04   4.31381730615283304E+04   4.31390863439742243E+04   4.31399861134690655E+04   4.31408700915832305E+04
             4.31417358942446517E+04   4.31425813894548410E+04   4.31434056877894473E+04   4.31442083534014891E+04   4.31449892428197927E+04
             4.31457481362113249E+04   4.31464843458454998E+04   4.31471968977089346E+04   4.31478845962370251E+04   4.31485459212518181E+04
             4.31491790029631884E+04   4.31497817253408575E+04   4.31503517730130334E+04   4.31508877346827503E+04   4.31513922286228044E+04
             4.31518688557219721E+04   4.31523210240161425E+04   4.31527520567122556E+04   4.31531652538437193E+04   4.31535638560926818E+04
             4.31539511474175015E+04   4.31543302690080745E+04   4.31547040413630966E+04   4.31550753110801888E+04   4.31554472670866817E+04
             4.31558227085584222E+04   4.31562021520393464E+04   4.31565857521842627E+04   4.31569739630437907E+04   4.31573673733477772E+04
             4.31577665891147262E+04   4.31581718822270923E+04   4.31585821882779928E+04   4.31589960541909459E+04   4.31594120024590375E+04
             4.31598286179408024E+04   4.31602446937189743E+04   4.31606595859356821E+04   4.31610744301816594E+04   4.31614909846426235E+04
             4.31619112626487840E+04   4.31623374061142531E+04   4.31627715300093259E+04   4.31632154202301681E+04   4.31636694067006465E+04
             4.31641334828104591E+04   4.31646077767682655E+04   4.31650923480443525E+04   4.31655870483468316E+04   4.31660915930665869E+04
             4.31666057283378977E+04   4.31671290826241820E+04   4.31676610651617593E+04   4.31682010795914175E+04   4.31687487329506621E+04
             4.31693040318866551E+04   4.31698681750457545E+04   4.31704427538400123E+04   4.31710294907395073E+04   4.31716301415065027E+04
             4.31722463700418448E+04   4.31728801165787081E+04   4.31735345519267139E+04   4.31742131427932472E+04   4.31749193837364364E+04
             4.31756567217962074E+04   4.31764285049021637E+04   4.31772374305012418E+04   4.31780837775026084E+04   4.31789671323848597E+04
             4.31798869300036604E+04   4.31808425338166344E+04   4.31818332767471511E+04   4.31828577533639182E+04   4.31839117170204554E+04
             4.31849901946625832E+04   4.31860881296610823E+04   4.31872005027406121E+04   4.31883224153849878E+04   4.31894494714872926E+04
             4.31905790439569319E+04   4.31917090924198346E+04   4.31928378314219954E+04   4.31939635818628740E+04   4.31950847500477466E+04
             4.31962005336694492E+04   4.31973131076718782E+04   4.31984252837082531E+04   4.31995396960999788E+04   4.32006589570833967E+04
             4.32017857015053669E+04   4.32029220501038944E+04   4.32040679282949204E+04   4.32052228366148338E+04   4.32063864314426683E+04
             4.32075584162874147E+04   4.32087384032375776E+04   4.32099257662922537E+04   4.32111191088555643E+04   4.32123167420383979E+04
             4.32135166271092749E+04   4.32147169920929955E+04   4.32158862011321689E+04
 ETA=   18   4.30085840633175321E+04   4.30146812637591065E+04   4.30207336231781956E+04   4.30266109920164963E+04   4.30322893895678717E+04
             4.30377482502253624E+04   4.30429702493763471E+04   4.30479457969127761E+04   4.30526917760575961E+04   4.30572299578062957E+04
             4.30615805279695560E+04   4.30657626959986737E+04   4.30697948239473480E+04   4.30736931004507132E+04   4.30774660743341810E+04
             4.30811197056926685E+04   4.30846598973338987E+04   4.30880917642141721E+04   4.30914185097840673E+04   4.30946419824439436E+04
             4.30977633801057236E+04   4.31007842022727273E+04   4.31037057989185632E+04   4.31065298575968409E+04   4.31092590572769550E+04
             4.31118964478744092E+04   4.31144440508059924E+04   4.31169033563757839E+04   4.31192754389744732E+04   4.31215610949305628E+04
             4.31237606311474010E+04   4.31258743780152872E+04   4.31279033362056798E+04   4.31298484255404837E+04   4.31317104551379307E+04
             4.31334897966492499E+04   4.31351859210169496E+04   4.31367989771680077E+04   4.31383339102125756E+04   4.31397968354855548E+04
             4.31411934921146894E+04   4.31425296304062140E+04   4.31438113975430606E+04   4.31450446927435987E+04   4.31462337709051499E+04
             4.31473823345881974E+04   4.31484937170648409E+04   4.31495712689445427E+04   4.31506185983250398E+04   4.31516392369858804E+04
             4.31526357164654910E+04   4.31536106394123635E+04   4.31545670632655674E+04   4.31555082947397968E+04   4.31564378002168523E+04
[...]
             4.19151098757662810E+05   4.19149756131692906E+05   4.19148429841222824E+05   4.19147121036813129E+05   4.19145829484447138E+05
             4.19144554226492415E+05   4.19143289219854458E+05   4.19142028198149113E+05   4.19140764195587602E+05   4.19139491050010489E+05
             4.19138201848842204E+05   4.19136891174926481E+05   4.19135556450727803E+05   4.19134196409245720E+05   4.19132809868195734E+05
             4.19131395687196054E+05   4.19129952134119812E+05   4.19128478563361219E+05   4.19126980604714190E+05   4.19125464771849569E+05
             4.19123937072489935E+05   4.19122402874510852E+05   4.19120868488568580E+05   4.19119338670821278E+05   4.19117813420096878E+05
             4.19116291227991169E+05   4.19114771367847919E+05   4.19113252993013069E+05   4.19111736180384352E+05   4.19110222236104775E+05
             4.19108718526680314E+05   4.19107232367783552E+05   4.19105769923161482E+05   4.19104336538243573E+05   4.19102939102351491E+05
             4.19101581297672121E+05   4.19100258073739358E+05   4.19098962925995816E+05   4.19097693828742835E+05   4.19096448745299829E+05
             4.19095227399166091E+05   4.19094029563252523E+05   4.19092861060500843E+05   4.19091726282652642E+05   4.19090630997694039E+05
             4.19089578458457836E+05   4.19088574126052088E+05   4.19087620530211483E+05   4.19086722027171403E+05   4.19085881546907418E+05
             4.19085105263755016E+05   4.19084390525710071E+05   4.19083781418862403E+05
 ETA=  358   4.19989780586940586E+05   4.19964685728157696E+05   4.19939902793621994E+05   4.19915737020998262E+05   4.19892291507741436E+05
             4.19869634330972622E+05   4.19847841522305680E+05   4.19826967735783139E+05   4.19806942405670474E+05   4.19787670427734673E+05
             4.19769071655641194E+05   4.19751073617746821E+05   4.19733610168091545E+05   4.19716620533406676E+05   4.19700060338391399E+05
             4.19683896215295070E+05   4.19668127593523590E+05   4.19652764412307937E+05   4.19637830363153829E+05   4.19623351682266919E+05
             4.19609348048279586E+05   4.19595833833291370E+05   4.19582806165614689E+05   4.19570256189197942E+05   4.19558163197352493E+05
             4.19546503740618296E+05   4.19535253271520487E+05   4.19524387195880408E+05   4.19513882948485320E+05   4.19503718810768158E+05
             4.19493882174242404E+05   4.19484349693976226E+05   4.19475062440243724E+05   4.19465960696253285E+05   4.19457013661952631E+05
             4.19448197472509288E+05   4.19439480070416583E+05   4.19430855529510183E+05   4.19422399819173384E+05   4.19414195525717863E+05
             4.19406275519776973E+05   4.19398659390162211E+05   4.19391361732809397E+05   4.19384381812994077E+05   4.19377670472919533E+05
             4.19371171269515413E+05   4.19364839304675290E+05   4.19358633961604268E+05   4.19352519349062699E+05   4.19346455652584671E+05
             4.19340389326075965E+05   4.19334268448461720E+05   4.19328062003233412E+05   4.19321746957407740E+05   4.19315307475837530E+05
             4.19308757638036157E+05   4.19302200028697494E+05   4.19295748628385481E+05   4.19289479225408286E+05   4.19283451858553279E+05
             4.19277710979945434E+05   4.19272283329698839E+05   4.19267159946309519E+05   4.19262323752122291E+05   4.19257766406517883E+05
             4.19253479341851082E+05   4.19249457215136674E+05   4.19245690292961022E+05   4.19242162751694617E+05   4.19238855921325099E+05
             4.19235756687988585E+05   4.19232851697003061E+05   4.19230128283988452E+05   4.19227572654419695E+05   4.19225165727978048E+05
             4.19222888939266559E+05   4.19220722977233119E+05   4.19218651460421795E+05   4.19216657763339754E+05   4.19214728551159962E+05
             4.19212850371736160E+05   4.19211012935780687E+05   4.19209206154359039E+05   4.19207422460834205E+05   4.19205653958954266E+05
             4.19203896243029158E+05   4.19202151346175349E+05   4.19200423228861997E+05   4.19198713932925137E+05   4.19197025617118052E+05
             4.19195362590787176E+05   4.19193726856290072E+05   4.19192111712351791E+05   4.19190508816094603E+05   4.19188914239095699E+05
             4.19187324477714777E+05   4.19185735541823029E+05   4.19184144091328431E+05   4.19182551919330144E+05   4.19180961388760072E+05
             4.19179374300121679E+05   4.19177791474547877E+05   4.19176212940651400E+05   4.19174638395140762E+05   4.19173070460585004E+05
             4.19171511710634630E+05   4.19169963451371761E+05   4.19168427016431990E+05   4.19166905365934246E+05   4.19165401902192738E+05
             4.19163916401557392E+05   4.19162448658364825E+05   4.19160998208987876E+05   4.19159565289279853E+05   4.19158148252976069E+05
             4.19156744989507133E+05   4.19155348502771987E+05   4.19153951818420086E+05   4.19152547163056093E+05   4.19151127721170371E+05
             4.19149686102161242E+05   4.19148216547227988E+05   4.19146716573721147E+05   4.19145185096277739E+05   4.19143621646116953E+05
             4.19142025697090023E+05   4.19140396419607510E+05   4.19138734011407534E+05   4.19137045869309921E+05   4.19135339984344784E+05
             4.19133623601000174E+05   4.19131902855911176E+05   4.19130184969521535E+05   4.19128475127882557E+05   4.19126773244850978E+05
             4.19125077525861911E+05   4.19123387246342783E+05   4.19121701705544023E+05   4.19120021315582620E+05   4.19118347691810166E+05
             4.19116687721670256E+05   4.19115048270857253E+05   4.19113435401314578E+05   4.19111854324516491E+05   4.19110311517235707E+05
             4.19108810458756518E+05   4.19107347222622018E+05   4.19105916641084244E+05   4.19104517547724070E+05   4.19103149055418267E+05
             4.19101812129826983E+05   4.19100508088341041E+05   4.19099243226148363E+05   4.19098022782964283E+05   4.19096853241879377E+05
             4.19095739028390904E+05   4.19094686555093678E+05   4.19093699539956579E+05   4.19092783857647155E+05   4.19091943366177380E+05
             4.19091183798786020E+05   4.19090501001694298E+05   4.19089914543600345E+05
 ETA=  359   4.20004187761132256E+05   4.19979215778379177E+05   4.19954614357318904E+05   4.19930656229120621E+05   4.19907433647796803E+05
             4.19885009879914171E+05   4.19863453451828973E+05   4.19842810803710250E+05   4.19823006473941146E+05   4.19803942096744780E+05
             4.19785535933320585E+05   4.19767714169416635E+05   4.19750409747423779E+05   4.19733561337968451E+05   4.19717125458038237E+05
             4.19701070300799620E+05   4.19685398075681005E+05   4.19670121970231470E+05   4.19655269234771607E+05   4.19640868773022259E+05
             4.19626940474194591E+05   4.19613497984571964E+05   4.19600537625105702E+05   4.19588049115422007E+05   4.19576010249024082E+05
             4.19564395822461345E+05   4.19553179957021493E+05   4.19542336408466392E+05   4.19531840862348443E+05   4.19521669585541706E+05
             4.19511809135087766E+05   4.19502237403921026E+05   4.19492905546719907E+05   4.19483764498537872E+05   4.19474790610539610E+05
             4.19465967389574449E+05   4.19457269946034881E+05   4.19448696500948630E+05   4.19440310875147989E+05   4.19432182720283861E+05
             4.19424334823389188E+05   4.19416777927416260E+05   4.19409517440255848E+05   4.19402545131621941E+05   4.19395812041913276E+05
             4.19389262210237677E+05   4.19382852086964122E+05   4.19376541427598451E+05   4.19370295762380934E+05   4.19364077431738668E+05
             4.19357840275838214E+05   4.19351540530646278E+05   4.19345154971863551E+05   4.19338669615604740E+05   4.19332079754828475E+05
             4.19325408820314682E+05   4.19318757630714332E+05   4.19312236216629448E+05   4.19305915067721216E+05   4.19299848575707350E+05
             4.19294074835566804E+05   4.19288615655594214E+05   4.19283463101187022E+05   4.19278601546697726E+05   4.19274024222987879E+05
             4.19269723414055770E+05   4.19265693984625454E+05   4.19261925760377198E+05   4.19258401725058153E+05   4.19255101887970057E+05
             4.19252011318936711E+05   4.19249115017761651E+05   4.19246397983153525E+05   4.19243844461134926E+05   4.19241432654336793E+05
             4.19239142075329670E+05   4.19236951400635007E+05   4.19234843086503271E+05   4.19232799318339850E+05   4.19230806272444024E+05
             4.19228850481505215E+05   4.19226922045789077E+05   4.19225011429591221E+05   4.19223111805768334E+05   4.19221216287994466E+05
             4.19219321408799791E+05   4.19217429876764421E+05   4.19215546161947772E+05   4.19213673156739445E+05   4.19211813494508911E+05
             4.19209972251613566E+05   4.19208151761680841E+05   4.19206346737248416E+05   4.19204549852597411E+05   4.19202758811159467E+05
             4.19200971406084835E+05   4.19199185039905016E+05   4.19197397548433219E+05   4.19195611605469370E+05   4.19193830276568187E+05
             4.19192055633138458E+05   4.19190288711565488E+05   4.19188529530057625E+05   4.19186778096655849E+05   4.19185037995591410E+05
             4.19183312819929561E+05   4.19181603939213150E+05   4.19179912790594972E+05   4.19178242259465856E+05   4.19176595437130425E+05
             4.19174969964136661E+05   4.19173363680223352E+05   4.19171774549552356E+05   4.19170201592986064E+05   4.19168641658084234E+05
             4.19167091324116162E+05   4.19165542662039108E+05   4.19163987904712441E+05   4.19162418765462877E+05   4.19160827982913062E+05
             4.19159208259455336E+05   4.19157554015743546E+05   4.19155863714876876E+05   4.19154137202186044E+05   4.19152375518954883E+05
             4.19150579414544743E+05   4.19148749577017443E+05   4.19146887541320990E+05   4.19145002587569412E+05   4.19143104092162685E+05
             4.19141200131339021E+05   4.19139297140043054E+05   4.19137402492392983E+05   4.19135521105980151E+05   4.19133652251409076E+05
             4.19131793415955617E+05   4.19129943485911994E+05   4.19128101594595704E+05   4.19126268108611926E+05   4.19124444654873630E+05
             4.19122637352023099E+05   4.19120852507166041E+05   4.19119095857064065E+05   4.19117372452003881E+05   4.19115688280803792E+05
             4.19114046749526518E+05   4.19112444782767212E+05   4.19110878398854402E+05   4.19109346723144292E+05   4.19107849679844745E+05
             4.19106388411908876E+05   4.19104965079800575E+05   4.19103585041585204E+05   4.19102253735710983E+05   4.19100976677795639E+05
             4.19099758823937795E+05   4.19098605802041478E+05   4.19097522217147285E+05   4.19096514344243158E+05   4.19095588174587872E+05
             4.19094752498087939E+05   4.19094007114936598E+05   4.19093368973631761E+05
 ETA=  360   4.20019107755848672E+05   4.19994359931144747E+05   4.19969990740251378E+05   4.19946259964204452E+05   4.19923263503046823E+05
             4.19901066006730078E+05   4.19879730581872398E+05   4.19859296501657751E+05   4.19839685028698936E+05   4.19820796448978479E+05
             4.19802549225022842E+05   4.19784869931531779E+05   4.19767692099591251E+05   4.19750955093620694E+05   4.19734616695877048E+05
             4.19718646666520624E+05   4.19703049401097116E+05   4.19687840493784810E+05   4.19673049521132256E+05   4.19658707046156051E+05
             4.19644832935334940E+05   4.19631440122409607E+05   4.19618524154003884E+05   4.19606073674360465E+05   4.19594065627011412E+05
             4.19582473879004305E+05   4.19571271939894184E+05   4.19560432997298951E+05   4.19549932284194045E+05   4.19539745797874872E+05
             4.19529860692997638E+05   4.19520256779845222E+05   4.19510892175254587E+05   4.19501724733839626E+05   4.19492734911302163E+05
             4.19483909641854640E+05   4.19475227125716279E+05   4.19466686076620652E+05   4.19458340439236432E+05   4.19450249248533568E+05
             4.19442427267094783E+05   4.19434878642741882E+05   4.19427602676128270E+05   4.19420586671077821E+05   4.19413782537627907E+05
             4.19407135862921772E+05   4.19400605592861015E+05   4.19394153696074558E+05   4.19387748608376482E+05   4.19381356273868529E+05
             4.19374937293420604E+05   4.19368455509370309E+05   4.19361895075882901E+05   4.19355249785432592E+05   4.19348523602516099E+05
             4.19341746468872647E+05   4.19335017118295946E+05   4.19328440549513442E+05   4.19322080689551716E+05   4.19315985714446695E+05
             4.19310187959249888E+05   4.19304705252272601E+05   4.19299530227447860E+05   4.19294648687711451E+05   4.19290055132013746E+05
             4.19285742598616169E+05   4.19281705497893796E+05   4.19277932541986753E+05   4.19274404716830351E+05   4.19271100139499875E+05
             4.19268001375674794E+05   4.19265091099583136E+05   4.19262351214131224E+05   4.19259763274716854E+05   4.19257302499561163E+05
             4.19254946325134020E+05   4.19252671727941022E+05   4.19250460416603368E+05   4.19248294130983471E+05   4.19246159388572793E+05
             4.19244043658687267E+05   4.19241938439300924E+05   4.19239835945818224E+05   4.19237731326766952E+05   4.19235620070838137E+05
             4.19233501049671497E+05   4.19231379404480162E+05   4.19229261545874411E+05   4.19227152153882082E+05   4.19225055081777100E+05
             4.19222976526557468E+05   4.19220919140540936E+05   4.19218878560382524E+05   4.19216848115397152E+05   4.19214826757738425E+05
             4.19212813224801619E+05   4.19210805827530101E+05   4.19208803092416259E+05   4.19206808090759907E+05   4.19204824072641321E+05
             4.19202852735684311E+05   4.19200894859325839E+05   4.19198950078463706E+05   4.19197018450928153E+05   4.19195103932755126E+05
             4.19193210441472300E+05   4.19191338809300971E+05   4.19189489951043855E+05   4.19187666003916296E+05   4.19185869048424938E+05
             4.19184094562402111E+05   4.19182338584640122E+05   4.19180597715898941E+05   4.19178869966178550E+05   4.19177151081094693E+05
             4.19175436675600067E+05   4.19173718344161112E+05   4.19171988020330842E+05   4.19170237666565576E+05   4.19168460421091586E+05
             4.19166650089694827E+05   4.19164802232928399E+05   4.19162917171080306E+05   4.19160996331788716E+05   4.19159042531796382E+05
             4.19157057811300911E+05   4.19155044092575088E+05   4.19153003914316127E+05   4.19150947488559992E+05   4.19148884538764425E+05
             4.19146822895575198E+05   4.19144768457135884E+05   4.19142727734268119E+05   4.19140704732347338E+05   4.19138697721254779E+05
             4.19136703310920217E+05   4.19134719909210107E+05   4.19132746313672047E+05   4.19130782776773791E+05   4.19128830762224155E+05
             4.19126895730809483E+05   4.19124983533380262E+05   4.19123099641971232E+05   4.19121249034585955E+05   4.19119437357243442E+05
             4.19117668077915849E+05   4.19115938599793357E+05   4.19114245700150088E+05   4.19112588168213028E+05   4.19110966168298910E+05
             4.19109380125678785E+05   4.19107832178551587E+05   4.19106325845323678E+05   4.19104866223140270E+05   4.19103456578372454E+05
             4.19102101580485760E+05   4.19100804287001782E+05   4.19099568509733945E+05   4.19098397202452819E+05   4.19097294011423481E+05
             4.19096263038151897E+05   4.19095285447255534E+05   4.19094361123435898E+05
 ETA=  361   4.20034231073610717E+05   4.20009940409494506E+05   4.19985828846463235E+05   4.19962319238103984E+05   4.19939536818824592E+05
             4.19917548714314413E+05   4.19896411286812567E+05   4.19876157472361636E+05   4.19856706351602043E+05   4.19837958675287722E+05
             4.19819834885850025E+05   4.19802263743175426E+05   4.19785181188422313E+05   4.19768528236922051E+05   4.19752263676859380E+05
             4.19736358464844816E+05   4.19720817872333166E+05   4.19705658967006544E+05   4.19690912531728158E+05   4.19676610184537189E+05
             4.19662771765294427E+05   4.19649409306462971E+05   4.19636517824061681E+05   4.19624085100565222E+05   4.19612087992678280E+05
             4.19600500360343198E+05   4.19589295881945640E+05   4.19578448583995632E+05   4.19567934250794642E+05   4.19557730285873287E+05
             4.19547825246941182E+05   4.19538200444305432E+05   4.19528816828521143E+05   4.19519634189152275E+05   4.19510633441981976E+05
             4.19501801326535468E+05   4.19493115365394333E+05   4.19484572349085065E+05   4.19476219680576411E+05   4.19468109036227048E+05
             4.19460249465339468E+05   4.19452641393097001E+05   4.19445281855782261E+05   4.19438157890140312E+05   4.19431223748688353E+05
             4.19424428719346062E+05   4.19417736322530953E+05   4.19411113377995614E+05   4.19404533168213617E+05   4.19397966554608371E+05
             4.19391380046954961E+05   4.19384743813063018E+05   4.19378048026420700E+05   4.19371291576900461E+05   4.19364483057206555E+05
             4.19357654753816489E+05   4.19350901694943605E+05   4.19344321305461111E+05   4.19337968817427638E+05   4.19331884932037850E+05
             4.19326096569223562E+05   4.19320618210114131E+05   4.19315442442632280E+05   4.19310555486301775E+05   4.19305951642032422E+05
             4.19301623277568084E+05   4.19297563271055464E+05   4.19293758181805082E+05   4.19290186787886370E+05   4.19286825098041154E+05
             4.19283653571613540E+05   4.19280652805394609E+05   4.19277802533388778E+05   4.19275082280440605E+05   4.19272465686418989E+05
             4.19269930075779208E+05   4.19267452896380040E+05   4.19265017573486140E+05   4.19262607815144467E+05   4.19260213073618186E+05
             4.19257823984334827E+05   4.19255435589758446E+05   4.19253043919073651E+05   4.19250647647013830E+05   4.19248245456504985E+05
             4.19245839272689249E+05   4.19243437043987738E+05   4.19241046683192370E+05   4.19238673772767303E+05   4.19236322557250678E+05
             4.19233999242877821E+05   4.19231705454352719E+05   4.19229436632986821E+05   4.19227185752980411E+05   4.19224952065840655E+05
             4.19222734080416500E+05   4.19220529739305319E+05   4.19218336928711622E+05   4.19216158281491429E+05   4.19213996068344044E+05
             4.19211850907707238E+05   4.19209722830624378E+05   4.19207611006764171E+05   4.19205515323765052E+05   4.19203439882130420E+05
             4.19201388076921983E+05   4.19199360014431004E+05   4.19197355955169478E+05   4.19195377278122585E+05   4.19193425058099441E+05
             4.19191493759295787E+05   4.19189578804121120E+05   4.19187676475191081E+05   4.19185784882025502E+05   4.19183899832737981E+05
             4.19182016950027086E+05   4.19180128051601350E+05   4.19178225797507854E+05   4.19176303224698466E+05   4.19174354526655981E+05
             4.19172374984271650E+05   4.19170361475385027E+05   4.19168315701564658E+05   4.19166239807238046E+05   4.19164137368869095E+05
             4.19162010345862771E+05   4.19159860715517018E+05   4.19157690651434241E+05   4.19155509915186150E+05   4.19153327507742913E+05
             4.19151150501774217E+05   4.19148983706452942E+05   4.19146832937657135E+05   4.19144701338036335E+05   4.19142586791137175E+05
             4.19140485526645731E+05   4.19138395616023045E+05   4.19136315529039246E+05   4.19134245490493253E+05   4.19132186707225745E+05
             4.19130144265229348E+05   4.19128123737897491E+05   4.19126130600155971E+05   4.19124169739939040E+05   4.19122247113695834E+05
             4.19120366315984575E+05   4.19118525042552210E+05   4.19116720061539439E+05   4.19114949728443986E+05   4.19113213940605172E+05
             4.19111512074245431E+05   4.19109845583879971E+05   4.19108216464555706E+05   4.19106628843378217E+05   4.19105084292110696E+05
             4.19103586607433564E+05   4.19102136515922204E+05   4.19100735957394994E+05   4.19099384556723759E+05   4.19098082124310720E+05
             4.19096827197226172E+05   4.19095598488719086E+05   4.19094476947473886E+05
