*
* WL | Delft Hydraulics, Delft3D-RGFGRID, Version 4.13.00.00; Aug 2005
* File creation date: 15:38:47, 11-09-2005
*
Coordinate System = Cartesian
      70      81
 0 0 0
 ETA=    1   1.00999999999999996E+01   2.01000000000000014E+01   3.01000000000000014E+01   4.01000000000000014E+01   5.01000000000000014E+01
             6.01000000000000014E+01   7.00999999999999943E+01   8.00999999999999943E+01   9.00999999999999943E+01   1.00099999999999994E+02
             1.10099999999999994E+02   1.20099999999999994E+02   1.30099999999999994E+02   1.40099999999999994E+02   1.50099999999999994E+02
             1.60099999999999994E+02   1.70099999999999994E+02   1.80099999999999994E+02   1.90099999999999994E+02   2.00099999999999994E+02
             2.10099999999999994E+02   2.20099999999999994E+02   2.30099999999999994E+02   2.40099999999999994E+02   2.50099999999999994E+02
             2.60100000000000023E+02   2.70100000000000023E+02   2.80100000000000023E+02   2.90100000000000023E+02   3.00100000000000023E+02
             3.10100000000000023E+02   3.20100000000000023E+02   3.30100000000000023E+02   3.40100000000000023E+02   3.50100000000000023E+02
             3.60100000000000023E+02   3.70100000000000023E+02   3.80100000000000023E+02   3.90100000000000023E+02   4.00100000000000023E+02
             4.10100000000000023E+02   4.20100000000000023E+02   4.30100000000000023E+02   4.40100000000000023E+02   4.50100000000000023E+02
             4.60100000000000023E+02   4.70100000000000023E+02   4.80100000000000023E+02   4.90100000000000023E+02   5.00100000000000023E+02
             5.10100000000000023E+02   5.20100000000000023E+02   5.30100000000000023E+02   5.40100000000000023E+02   5.50100000000000023E+02
             5.60100000000000023E+02   5.70100000000000023E+02   5.80100000000000023E+02   5.90100000000000023E+02   6.00100000000000023E+02
             6.10100000000000023E+02   6.20100000000000023E+02   6.30100000000000023E+02   6.40100000000000023E+02   6.50100000000000023E+02
             6.60100000000000023E+02   6.70100000000000023E+02   6.80100000000000023E+02   6.90100000000000023E+02   7.00100000000000023E+02
 ETA=    2   1.00999999999999996E+01   2.01000000000000014E+01   3.01000000000000014E+01   4.01000000000000014E+01   5.01000000000000014E+01
             6.01000000000000014E+01   7.00999999999999943E+01   8.00999999999999943E+01   9.00999999999999943E+01   1.00099999999999994E+02
             1.10099999999999994E+02   1.20099999999999994E+02   1.30099999999999994E+02   1.40099999999999994E+02   1.50099999999999994E+02
             1.60099999999999994E+02   1.70099999999999994E+02   1.80099999999999994E+02   1.90099999999999994E+02   2.00099999999999994E+02
             2.10099999999999994E+02   2.20099999999999994E+02   2.30099999999999994E+02   2.40099999999999994E+02   2.50099999999999994E+02
             2.60100000000000023E+02   2.70100000000000023E+02   2.80100000000000023E+02   2.90100000000000023E+02   3.00100000000000023E+02
             3.10100000000000023E+02   3.20100000000000023E+02   3.30100000000000023E+02   3.40100000000000023E+02   3.50100000000000023E+02
             3.60100000000000023E+02   3.70100000000000023E+02   3.80100000000000023E+02   3.90100000000000023E+02   4.00100000000000023E+02
             4.10100000000000023E+02   4.20100000000000023E+02   4.30100000000000023E+02   4.40100000000000023E+02   4.50100000000000023E+02
             4.60100000000000023E+02   4.70100000000000023E+02   4.80100000000000023E+02   4.90100000000000023E+02   5.00100000000000023E+02
             5.10100000000000023E+02   5.20100000000000023E+02   5.30100000000000023E+02   5.40100000000000023E+02   5.50100000000000023E+02
             5.60100000000000023E+02   5.70100000000000023E+02   5.80100000000000023E+02   5.90100000000000023E+02   6.00100000000000023E+02
             6.10100000000000023E+02   6.20100000000000023E+02   6.30100000000000023E+02   6.40100000000000023E+02   6.50100000000000023E+02
             6.60100000000000023E+02   6.70100000000000023E+02   6.80100000000000023E+02   6.90100000000000023E+02   7.00100000000000023E+02
 ETA=    3   1.00999999999999996E+01   2.01000000000000014E+01   3.01000000000000014E+01   4.01000000000000014E+01   5.01000000000000014E+01
             6.01000000000000014E+01   7.00999999999999943E+01   8.00999999999999943E+01   9.00999999999999943E+01   1.00099999999999994E+02
             1.10099999999999994E+02   1.20099999999999994E+02   1.30099999999999994E+02   1.40099999999999994E+02   1.50099999999999994E+02
             1.60099999999999994E+02   1.70099999999999994E+02   1.80099999999999994E+02   1.90099999999999994E+02   2.00099999999999994E+02
             2.10099999999999994E+02   2.20099999999999994E+02   2.30099999999999994E+02   2.40099999999999994E+02   2.50099999999999994E+02
             2.60100000000000023E+02   2.70100000000000023E+02   2.80100000000000023E+02   2.90100000000000023E+02   3.00100000000000023E+02
             3.10100000000000023E+02   3.20100000000000023E+02   3.30100000000000023E+02   3.40100000000000023E+02   3.50100000000000023E+02
             3.60100000000000023E+02   3.70100000000000023E+02   3.80100000000000023E+02   3.90100000000000023E+02   4.00100000000000023E+02
             4.10100000000000023E+02   4.20100000000000023E+02   4.30100000000000023E+02   4.40100000000000023E+02   4.50100000000000023E+02
             4.60100000000000023E+02   4.70100000000000023E+02   4.80100000000000023E+02   4.90100000000000023E+02   5.00100000000000023E+02
             5.10100000000000023E+02   5.20100000000000023E+02   5.30100000000000023E+02   5.40100000000000023E+02   5.50100000000000023E+02
             5.60100000000000023E+02   5.70100000000000023E+02   5.80100000000000023E+02   5.90100000000000023E+02   6.00100000000000023E+02
             6.10100000000000023E+02   6.20100000000000023E+02   6.30100000000000023E+02   6.40100000000000023E+02   6.50100000000000023E+02
             6.60100000000000023E+02   6.70100000000000023E+02   6.80100000000000023E+02   6.90100000000000023E+02   7.00100000000000023E+02
 ETA=    4   1.00999999999999996E+01   2.01000000000000014E+01   3.01000000000000014E+01   4.01000000000000014E+01   5.01000000000000014E+01
             6.01000000000000014E+01   7.00999999999999943E+01   8.00999999999999943E+01   9.00999999999999943E+01   1.00099999999999994E+02
             1.10099999999999994E+02   1.20099999999999994E+02   1.30099999999999994E+02   1.40099999999999994E+02   1.50099999999999994E+02
             1.60099999999999994E+02   1.70099999999999994E+02   1.80099999999999994E+02   1.90099999999999994E+02   2.00099999999999994E+02
             2.10099999999999994E+02   2.20099999999999994E+02   2.30099999999999994E+02   2.40099999999999994E+02   2.50099999999999994E+02
             2.60100000000000023E+02   2.70100000000000023E+02   2.80100000000000023E+02   2.90100000000000023E+02   3.00100000000000023E+02
             3.10100000000000023E+02   3.20100000000000023E+02   3.30100000000000023E+02   3.40100000000000023E+02   3.50100000000000023E+02
             3.60100000000000023E+02   3.70100000000000023E+02   3.80100000000000023E+02   3.90100000000000023E+02   4.00100000000000023E+02
             4.10100000000000023E+02   4.20100000000000023E+02   4.30100000000000023E+02   4.40100000000000023E+02   4.50100000000000023E+02
             4.60100000000000023E+02   4.70100000000000023E+02   4.80100000000000023E+02   4.90100000000000023E+02   5.00100000000000023E+02
             5.10100000000000023E+02   5.20100000000000023E+02   5.30100000000000023E+02   5.40100000000000023E+02   5.50100000000000023E+02
             5.60100000000000023E+02   5.70100000000000023E+02   5.80100000000000023E+02   5.90100000000000023E+02   6.00100000000000023E+02
             6.10100000000000023E+02   6.20100000000000023E+02   6.30100000000000023E+02   6.40100000000000023E+02   6.50100000000000023E+02
             6.60100000000000023E+02   6.70100000000000023E+02   6.80100000000000023E+02   6.90100000000000023E+02   7.00100000000000023E+02
 ETA=    5   1.00999999999999996E+01   2.01000000000000014E+01   3.01000000000000014E+01   4.01000000000000014E+01   5.01000000000000014E+01
             6.01000000000000014E+01   7.00999999999999943E+01   8.00999999999999943E+01   9.00999999999999943E+01   1.00099999999999994E+02
             1.10099999999999994E+02   1.20099999999999994E+02   1.30099999999999994E+02   1.40099999999999994E+02   1.50099999999999994E+02
             1.60099999999999994E+02   1.70099999999999994E+02   1.80099999999999994E+02   1.90099999999999994E+02   2.00099999999999994E+02
             2.10099999999999994E+02   2.20099999999999994E+02   2.30099999999999994E+02   2.40099999999999994E+02   2.50099999999999994E+02
             2.60100000000000023E+02   2.70100000000000023E+02   2.80100000000000023E+02   2.90100000000000023E+02   3.00100000000000023E+02
             3.10100000000000023E+02   3.20100000000000023E+02   3.30100000000000023E+02   3.40100000000000023E+02   3.50100000000000023E+02
             3.60100000000000023E+02   3.70100000000000023E+02   3.80100000000000023E+02   3.90100000000000023E+02   4.00100000000000023E+02
             4.10100000000000023E+02   4.20100000000000023E+02   4.30100000000000023E+02   4.40100000000000023E+02   4.50100000000000023E+02
             4.60100000000000023E+02   4.70100000000000023E+02   4.80100000000000023E+02   4.90100000000000023E+02   5.00100000000000023E+02
             5.10100000000000023E+02   5.20100000000000023E+02   5.30100000000000023E+02   5.40100000000000023E+02   5.50100000000000023E+02
             5.60100000000000023E+02   5.70100000000000023E+02   5.80100000000000023E+02   5.90100000000000023E+02   6.00100000000000023E+02
             6.10100000000000023E+02   6.20100000000000023E+02   6.30100000000000023E+02   6.40100000000000023E+02   6.50100000000000023E+02
             6.60100000000000023E+02   6.70100000000000023E+02   6.80100000000000023E+02   6.90100000000000023E+02   7.00100000000000023E+02
 ETA=    6   1.00999999999999996E+01   2.01000000000000014E+01   3.01000000000000014E+01   4.01000000000000014E+01   5.01000000000000014E+01
             6.01000000000000014E+01   7.00999999999999943E+01   8.00999999999999943E+01   9.00999999999999943E+01   1.00099999999999994E+02
             1.10099999999999994E+02   1.20099999999999994E+02   1.30099999999999994E+02   1.40099999999999994E+02   1.50099999999999994E+02
             1.60099999999999994E+02   1.70099999999999994E+02   1.80099999999999994E+02   1.90099999999999994E+02   2.00099999999999994E+02
             2.10099999999999994E+02   2.20099999999999994E+02   2.30099999999999994E+02   2.40099999999999994E+02   2.50099999999999994E+02
             2.60100000000000023E+02   2.70100000000000023E+02   2.80100000000000023E+02   2.90100000000000023E+02   3.00100000000000023E+02
             3.10100000000000023E+02   3.20100000000000023E+02   3.30100000000000023E+02   3.40100000000000023E+02   3.50100000000000023E+02
             3.60100000000000023E+02   3.70100000000000023E+02   3.80100000000000023E+02   3.90100000000000023E+02   4.00100000000000023E+02
             4.10100000000000023E+02   4.20100000000000023E+02   4.30100000000000023E+02   4.40100000000000023E+02   4.50100000000000023E+02
             4.60100000000000023E+02   4.70100000000000023E+02   4.80100000000000023E+02   4.90100000000000023E+02   5.00100000000000023E+02
             5.10100000000000023E+02   5.20100000000000023E+02   5.30100000000000023E+02   5.40100000000000023E+02   5.50100000000000023E+02
             5.60100000000000023E+02   5.70100000000000023E+02   5.80100000000000023E+02   5.90100000000000023E+02   6.00100000000000023E+02
             6.10100000000000023E+02   6.20100000000000023E+02   6.30100000000000023E+02   6.40100000000000023E+02   6.50100000000000023E+02
             6.60100000000000023E+02   6.70100000000000023E+02   6.80100000000000023E+02   6.90100000000000023E+02   7.00100000000000023E+02
 ETA=    7   1.00999999999999996E+01   2.01000000000000014E+01   3.01000000000000014E+01   4.01000000000000014E+01   5.01000000000000014E+01
             6.01000000000000014E+01   7.00999999999999943E+01   8.00999999999999943E+01   9.00999999999999943E+01   1.00099999999999994E+02
             1.10099999999999994E+02   1.20099999999999994E+02   1.30099999999999994E+02   1.40099999999999994E+02   1.50099999999999994E+02
             1.60099999999999994E+02   1.70099999999999994E+02   1.80099999999999994E+02   1.90099999999999994E+02   2.00099999999999994E+02
             2.10099999999999994E+02   2.20099999999999994E+02   2.30099999999999994E+02   2.40099999999999994E+02   2.50099999999999994E+02
             2.60100000000000023E+02   2.70100000000000023E+02   2.80100000000000023E+02   2.90100000000000023E+02   3.00100000000000023E+02
             3.10100000000000023E+02   3.20100000000000023E+02   3.30100000000000023E+02   3.40100000000000023E+02   3.50100000000000023E+02
             3.60100000000000023E+02   3.70100000000000023E+02   3.80100000000000023E+02   3.90100000000000023E+02   4.00100000000000023E+02
             4.10100000000000023E+02   4.20100000000000023E+02   4.30100000000000023E+02   4.40100000000000023E+02   4.50100000000000023E+02
             4.60100000000000023E+02   4.70100000000000023E+02   4.80100000000000023E+02   4.90100000000000023E+02   5.00100000000000023E+02
             5.10100000000000023E+02   5.20100000000000023E+02   5.30100000000000023E+02   5.40100000000000023E+02   5.50100000000000023E+02
             5.60100000000000023E+02   5.70100000000000023E+02   5.80100000000000023E+02   5.90100000000000023E+02   6.00100000000000023E+02
             6.10100000000000023E+02   6.20100000000000023E+02   6.30100000000000023E+02   6.40100000000000023E+02   6.50100000000000023E+02
             6.60100000000000023E+02   6.70100000000000023E+02   6.80100000000000023E+02   6.90100000000000023E+02   7.00100000000000023E+02
 ETA=    8   1.00999999999999996E+01   2.01000000000000014E+01   3.01000000000000014E+01   4.01000000000000014E+01   5.01000000000000014E+01
             6.01000000000000014E+01   7.00999999999999943E+01   8.00999999999999943E+01   9.00999999999999943E+01   1.00099999999999994E+02
             1.10099999999999994E+02   1.20099999999999994E+02   1.30099999999999994E+02   1.40099999999999994E+02   1.50099999999999994E+02
             1.60099999999999994E+02   1.70099999999999994E+02   1.80099999999999994E+02   1.90099999999999994E+02   2.00099999999999994E+02
             2.10099999999999994E+02   2.20099999999999994E+02   2.30099999999999994E+02   2.40099999999999994E+02   2.50099999999999994E+02
             2.60100000000000023E+02   2.70100000000000023E+02   2.80100000000000023E+02   2.90100000000000023E+02   3.00100000000000023E+02
             3.10100000000000023E+02   3.20100000000000023E+02   3.30100000000000023E+02   3.40100000000000023E+02   3.50100000000000023E+02
             3.60100000000000023E+02   3.70100000000000023E+02   3.80100000000000023E+02   3.90100000000000023E+02   4.00100000000000023E+02
             4.10100000000000023E+02   4.20100000000000023E+02   4.30100000000000023E+02   4.40100000000000023E+02   4.50100000000000023E+02
             4.60100000000000023E+02   4.70100000000000023E+02   4.80100000000000023E+02   4.90100000000000023E+02   5.00100000000000023E+02
             5.10100000000000023E+02   5.20100000000000023E+02   5.30100000000000023E+02   5.40100000000000023E+02   5.50100000000000023E+02
             5.60100000000000023E+02   5.70100000000000023E+02   5.80100000000000023E+02   5.90100000000000023E+02   6.00100000000000023E+02
             6.10100000000000023E+02   6.20100000000000023E+02   6.30100000000000023E+02   6.40100000000000023E+02   6.50100000000000023E+02
             6.60100000000000023E+02   6.70100000000000023E+02   6.80100000000000023E+02   6.90100000000000023E+02   7.00100000000000023E+02
 ETA=    9   1.00999999999999996E+01   2.01000000000000014E+01   3.01000000000000014E+01   4.01000000000000014E+01   5.01000000000000014E+01
             6.01000000000000014E+01   7.00999999999999943E+01   8.00999999999999943E+01   9.00999999999999943E+01   1.00099999999999994E+02
             1.10099999999999994E+02   1.20099999999999994E+02   1.30099999999999994E+02   1.40099999999999994E+02   1.50099999999999994E+02
             1.60099999999999994E+02   1.70099999999999994E+02   1.80099999999999994E+02   1.90099999999999994E+02   2.00099999999999994E+02
             2.10099999999999994E+02   2.20099999999999994E+02   2.30099999999999994E+02   2.40099999999999994E+02   2.50099999999999994E+02
             2.60100000000000023E+02   2.70100000000000023E+02   2.80100000000000023E+02   2.90100000000000023E+02   3.00100000000000023E+02
             3.10100000000000023E+02   3.20100000000000023E+02   3.30100000000000023E+02   3.40100000000000023E+02   3.50100000000000023E+02
             3.60100000000000023E+02   3.70100000000000023E+02   3.80100000000000023E+02   3.90100000000000023E+02   4.00100000000000023E+02
             4.10100000000000023E+02   4.20100000000000023E+02   4.30100000000000023E+02   4.40100000000000023E+02   4.50100000000000023E+02
             4.60100000000000023E+02   4.70100000000000023E+02   4.80100000000000023E+02   4.90100000000000023E+02   5.00100000000000023E+02
             5.10100000000000023E+02   5.20100000000000023E+02   5.30100000000000023E+02   5.40100000000000023E+02   5.50100000000000023E+02
             5.60100000000000023E+02   5.70100000000000023E+02   5.80100000000000023E+02   5.90100000000000023E+02   6.00100000000000023E+02
             6.10100000000000023E+02   6.20100000000000023E+02   6.30100000000000023E+02   6.40100000000000023E+02   6.50100000000000023E+02
             6.60100000000000023E+02   6.70100000000000023E+02   6.80100000000000023E+02   6.90100000000000023E+02   7.00100000000000023E+02
 ETA=   10   1.00999999999999996E+01   2.01000000000000014E+01   3.01000000000000014E+01   4.01000000000000014E+01   5.01000000000000014E+01
             6.01000000000000014E+01   7.00999999999999943E+01   8.00999999999999943E+01   9.00999999999999943E+01   1.00099999999999994E+02
             1.10099999999999994E+02   1.20099999999999994E+02   1.30099999999999994E+02   1.40099999999999994E+02   1.50099999999999994E+02
             1.60099999999999994E+02   1.70099999999999994E+02   1.80099999999999994E+02   1.90099999999999994E+02   2.00099999999999994E+02
             2.10099999999999994E+02   2.20099999999999994E+02   2.30099999999999994E+02   2.40099999999999994E+02   2.50099999999999994E+02
             2.60100000000000023E+02   2.70100000000000023E+02   2.80100000000000023E+02   2.90100000000000023E+02   3.00100000000000023E+02
             3.10100000000000023E+02   3.20100000000000023E+02   3.30100000000000023E+02   3.40100000000000023E+02   3.50100000000000023E+02
             3.60100000000000023E+02   3.70100000000000023E+02   3.80100000000000023E+02   3.90100000000000023E+02   4.00100000000000023E+02
             4.10100000000000023E+02   4.20100000000000023E+02   4.30100000000000023E+02   4.40100000000000023E+02   4.50100000000000023E+02
             4.60100000000000023E+02   4.70100000000000023E+02   4.80100000000000023E+02   4.90100000000000023E+02   5.00100000000000023E+02
             5.10100000000000023E+02   5.20100000000000023E+02   5.30100000000000023E+02   5.40100000000000023E+02   5.50100000000000023E+02
             5.60100000000000023E+02   5.70100000000000023E+02   5.80100000000000023E+02   5.90100000000000023E+02   6.00100000000000023E+02
             6.10100000000000023E+02   6.20100000000000023E+02   6.30100000000000023E+02   6.40100000000000023E+02   6.50100000000000023E+02
             6.60100000000000023E+02   6.70100000000000023E+02   6.80100000000000023E+02   6.90100000000000023E+02   7.00100000000000023E+02
 ETA=   11   1.00999999999999996E+01   2.01000000000000014E+01   3.01000000000000014E+01   4.01000000000000014E+01   5.01000000000000014E+01
             6.01000000000000014E+01   7.00999999999999943E+01   8.00999999999999943E+01   9.00999999999999943E+01   1.00099999999999994E+02
             1.10099999999999994E+02   1.20099999999999994E+02   1.30099999999999994E+02   1.40099999999999994E+02   1.50099999999999994E+02
             1.60099999999999994E+02   1.70099999999999994E+02   1.80099999999999994E+02   1.90099999999999994E+02   2.00099999999999994E+02
             2.10099999999999994E+02   2.20099999999999994E+02   2.30099999999999994E+02   2.40099999999999994E+02   2.50099999999999994E+02
             2.60100000000000023E+02   2.70100000000000023E+02   2.80100000000000023E+02   2.90100000000000023E+02   3.00100000000000023E+02
             3.10100000000000023E+02   3.20100000000000023E+02   3.30100000000000023E+02   3.40100000000000023E+02   3.50100000000000023E+02
             3.60100000000000023E+02   3.70100000000000023E+02   3.80100000000000023E+02   3.90100000000000023E+02   4.00100000000000023E+02
             4.10100000000000023E+02   4.20100000000000023E+02   4.30100000000000023E+02   4.40100000000000023E+02   4.50100000000000023E+02
             4.60100000000000023E+02   4.70100000000000023E+02   4.80100000000000023E+02   4.90100000000000023E+02   5.00100000000000023E+02
             5.10100000000000023E+02   5.20100000000000023E+02   5.30100000000000023E+02   5.40100000000000023E+02   5.50100000000000023E+02
             5.60100000000000023E+02   5.70100000000000023E+02   5.80100000000000023E+02   5.90100000000000023E+02   6.00100000000000023E+02
             6.10100000000000023E+02   6.20100000000000023E+02   6.30100000000000023E+02   6.40100000000000023E+02   6.50100000000000023E+02
             6.60100000000000023E+02   6.70100000000000023E+02   6.80100000000000023E+02   6.90100000000000023E+02   7.00100000000000023E+02
 ETA=   12   1.00999999999999996E+01   2.01000000000000014E+01   3.01000000000000014E+01   4.01000000000000014E+01   5.01000000000000014E+01
             6.01000000000000014E+01   7.00999999999999943E+01   8.00999999999999943E+01   9.00999999999999943E+01   1.00099999999999994E+02
             1.10099999999999994E+02   1.20099999999999994E+02   1.30099999999999994E+02   1.40099999999999994E+02   1.50099999999999994E+02
             1.60099999999999994E+02   1.70099999999999994E+02   1.80099999999999994E+02   1.90099999999999994E+02   2.00099999999999994E+02
             2.10099999999999994E+02   2.20099999999999994E+02   2.30099999999999994E+02   2.40099999999999994E+02   2.50099999999999994E+02
             2.60100000000000023E+02   2.70100000000000023E+02   2.80100000000000023E+02   2.90100000000000023E+02   3.00100000000000023E+02
             3.10100000000000023E+02   3.20100000000000023E+02   3.30100000000000023E+02   3.40100000000000023E+02   3.50100000000000023E+02
             3.60100000000000023E+02   3.70100000000000023E+02   3.80100000000000023E+02   3.90100000000000023E+02   4.00100000000000023E+02
             4.10100000000000023E+02   4.20100000000000023E+02   4.30100000000000023E+02   4.40100000000000023E+02   4.50100000000000023E+02
             4.60100000000000023E+02   4.70100000000000023E+02   4.80100000000000023E+02   4.90100000000000023E+02   5.00100000000000023E+02
             5.10100000000000023E+02   5.20100000000000023E+02   5.30100000000000023E+02   5.40100000000000023E+02   5.50100000000000023E+02
             5.60100000000000023E+02   5.70100000000000023E+02   5.80100000000000023E+02   5.90100000000000023E+02   6.00100000000000023E+02
             6.10100000000000023E+02   6.20100000000000023E+02   6.30100000000000023E+02   6.40100000000000023E+02   6.50100000000000023E+02
             6.60100000000000023E+02   6.70100000000000023E+02   6.80100000000000023E+02   6.90100000000000023E+02   7.00100000000000023E+02
 ETA=   13   1.00999999999999996E+01   2.01000000000000014E+01   3.01000000000000014E+01   4.01000000000000014E+01   5.01000000000000014E+01
             6.01000000000000014E+01   7.00999999999999943E+01   8.00999999999999943E+01   9.00999999999999943E+01   1.00099999999999994E+02
             1.10099999999999994E+02   1.20099999999999994E+02   1.30099999999999994E+02   1.40099999999999994E+02   1.50099999999999994E+02
             1.60099999999999994E+02   1.70099999999999994E+02   1.80099999999999994E+02   1.90099999999999994E+02   2.00099999999999994E+02
             2.10099999999999994E+02   2.20099999999999994E+02   2.30099999999999994E+02   2.40099999999999994E+02   2.50099999999999994E+02
             2.60100000000000023E+02   2.70100000000000023E+02   2.80100000000000023E+02   2.90100000000000023E+02   3.00100000000000023E+02
             3.10100000000000023E+02   3.20100000000000023E+02   3.30100000000000023E+02   3.40100000000000023E+02   3.50100000000000023E+02
             3.60100000000000023E+02   3.70100000000000023E+02   3.80100000000000023E+02   3.90100000000000023E+02   4.00100000000000023E+02
             4.10100000000000023E+02   4.20100000000000023E+02   4.30100000000000023E+02   4.40100000000000023E+02   4.50100000000000023E+02
             4.60100000000000023E+02   4.70100000000000023E+02   4.80100000000000023E+02   4.90100000000000023E+02   5.00100000000000023E+02
             5.10100000000000023E+02   5.20100000000000023E+02   5.30100000000000023E+02   5.40100000000000023E+02   5.50100000000000023E+02
             5.60100000000000023E+02   5.70100000000000023E+02   5.80100000000000023E+02   5.90100000000000023E+02   6.00100000000000023E+02
             6.10100000000000023E+02   6.20100000000000023E+02   6.30100000000000023E+02   6.40100000000000023E+02   6.50100000000000023E+02
             6.60100000000000023E+02   6.70100000000000023E+02   6.80100000000000023E+02   6.90100000000000023E+02   7.00100000000000023E+02
 ETA=   14   1.00999999999999996E+01   2.01000000000000014E+01   3.01000000000000014E+01   4.01000000000000014E+01   5.01000000000000014E+01
             6.01000000000000014E+01   7.00999999999999943E+01   8.00999999999999943E+01   9.00999999999999943E+01   1.00099999999999994E+02
             1.10099999999999994E+02   1.20099999999999994E+02   1.30099999999999994E+02   1.40099999999999994E+02   1.50099999999999994E+02
             1.60099999999999994E+02   1.70099999999999994E+02   1.80099999999999994E+02   1.90099999999999994E+02   2.00099999999999994E+02
             2.10099999999999994E+02   2.20099999999999994E+02   2.30099999999999994E+02   2.40099999999999994E+02   2.50099999999999994E+02
             2.60100000000000023E+02   2.70100000000000023E+02   2.80100000000000023E+02   2.90100000000000023E+02   3.00100000000000023E+02
             3.10100000000000023E+02   3.20100000000000023E+02   3.30100000000000023E+02   3.40100000000000023E+02   3.50100000000000023E+02
             3.60100000000000023E+02   3.70100000000000023E+02   3.80100000000000023E+02   3.90100000000000023E+02   4.00100000000000023E+02
             4.10100000000000023E+02   4.20100000000000023E+02   4.30100000000000023E+02   4.40100000000000023E+02   4.50100000000000023E+02
             4.60100000000000023E+02   4.70100000000000023E+02   4.80100000000000023E+02   4.90100000000000023E+02   5.00100000000000023E+02
             5.10100000000000023E+02   5.20100000000000023E+02   5.30100000000000023E+02   5.40100000000000023E+02   5.50100000000000023E+02
             5.60100000000000023E+02   5.70100000000000023E+02   5.80100000000000023E+02   5.90100000000000023E+02   6.00100000000000023E+02
             6.10100000000000023E+02   6.20100000000000023E+02   6.30100000000000023E+02   6.40100000000000023E+02   6.50100000000000023E+02
             6.60100000000000023E+02   6.70100000000000023E+02   6.80100000000000023E+02   6.90100000000000023E+02   7.00100000000000023E+02
 ETA=   15   1.00999999999999996E+01   2.01000000000000014E+01   3.01000000000000014E+01   4.01000000000000014E+01   5.01000000000000014E+01
             6.01000000000000014E+01   7.00999999999999943E+01   8.00999999999999943E+01   9.00999999999999943E+01   1.00099999999999994E+02
             1.10099999999999994E+02   1.20099999999999994E+02   1.30099999999999994E+02   1.40099999999999994E+02   1.50099999999999994E+02
             1.60099999999999994E+02   1.70099999999999994E+02   1.80099999999999994E+02   1.90099999999999994E+02   2.00099999999999994E+02
             2.10099999999999994E+02   2.20099999999999994E+02   2.30099999999999994E+02   2.40099999999999994E+02   2.50099999999999994E+02
             2.60100000000000023E+02   2.70100000000000023E+02   2.80100000000000023E+02   2.90100000000000023E+02   3.00100000000000023E+02
             3.10100000000000023E+02   3.20100000000000023E+02   3.30100000000000023E+02   3.40100000000000023E+02   3.50100000000000023E+02
             3.60100000000000023E+02   3.70100000000000023E+02   3.80100000000000023E+02   3.90100000000000023E+02   4.00100000000000023E+02
             4.10100000000000023E+02   4.20100000000000023E+02   4.30100000000000023E+02   4.40100000000000023E+02   4.50100000000000023E+02
             4.60100000000000023E+02   4.70100000000000023E+02   4.80100000000000023E+02   4.90100000000000023E+02   5.00100000000000023E+02
             5.10100000000000023E+02   5.20100000000000023E+02   5.30100000000000023E+02   5.40100000000000023E+02   5.50100000000000023E+02
             5.60100000000000023E+02   5.70100000000000023E+02   5.80100000000000023E+02   5.90100000000000023E+02   6.00100000000000023E+02
             6.10100000000000023E+02   6.20100000000000023E+02   6.30100000000000023E+02   6.40100000000000023E+02   6.50100000000000023E+02
             6.60100000000000023E+02   6.70100000000000023E+02   6.80100000000000023E+02   6.90100000000000023E+02   7.00100000000000023E+02
 ETA=   16   1.00999999999999996E+01   2.01000000000000014E+01   3.01000000000000014E+01   4.01000000000000014E+01   5.01000000000000014E+01
             6.01000000000000014E+01   7.00999999999999943E+01   8.00999999999999943E+01   9.00999999999999943E+01   1.00099999999999994E+02
             1.10099999999999994E+02   1.20099999999999994E+02   1.30099999999999994E+02   1.40099999999999994E+02   1.50099999999999994E+02
             1.60099999999999994E+02   1.70099999999999994E+02   1.80099999999999994E+02   1.90099999999999994E+02   2.00099999999999994E+02
             2.10099999999999994E+02   2.20099999999999994E+02   2.30099999999999994E+02   2.40099999999999994E+02   2.50099999999999994E+02
             2.60100000000000023E+02   2.70100000000000023E+02   2.80100000000000023E+02   2.90100000000000023E+02   3.00100000000000023E+02
             3.10100000000000023E+02   3.20100000000000023E+02   3.30100000000000023E+02   3.40100000000000023E+02   3.50100000000000023E+02
             3.60100000000000023E+02   3.70100000000000023E+02   3.80100000000000023E+02   3.90100000000000023E+02   4.00100000000000023E+02
             4.10100000000000023E+02   4.20100000000000023E+02   4.30100000000000023E+02   4.40100000000000023E+02   4.50100000000000023E+02
             4.60100000000000023E+02   4.70100000000000023E+02   4.80100000000000023E+02   4.90100000000000023E+02   5.00100000000000023E+02
             5.10100000000000023E+02   5.20100000000000023E+02   5.30100000000000023E+02   5.40100000000000023E+02   5.50100000000000023E+02
             5.60100000000000023E+02   5.70100000000000023E+02   5.80100000000000023E+02   5.90100000000000023E+02   6.00100000000000023E+02
             6.10100000000000023E+02   6.20100000000000023E+02   6.30100000000000023E+02   6.40100000000000023E+02   6.50100000000000023E+02
             6.60100000000000023E+02   6.70100000000000023E+02   6.80100000000000023E+02   6.90100000000000023E+02   7.00100000000000023E+02
 ETA=   17   1.00999999999999996E+01   2.01000000000000014E+01   3.01000000000000014E+01   4.01000000000000014E+01   5.01000000000000014E+01
             6.01000000000000014E+01   7.00999999999999943E+01   8.00999999999999943E+01   9.00999999999999943E+01   1.00099999999999994E+02
             1.10099999999999994E+02   1.20099999999999994E+02   1.30099999999999994E+02   1.40099999999999994E+02   1.50099999999999994E+02
             1.60099999999999994E+02   1.70099999999999994E+02   1.80099999999999994E+02   1.90099999999999994E+02   2.00099999999999994E+02
             2.10099999999999994E+02   2.20099999999999994E+02   2.30099999999999994E+02   2.40099999999999994E+02   2.50099999999999994E+02
             2.60100000000000023E+02   2.70100000000000023E+02   2.80100000000000023E+02   2.90100000000000023E+02   3.00100000000000023E+02
             3.10100000000000023E+02   3.20100000000000023E+02   3.30100000000000023E+02   3.40100000000000023E+02   3.50100000000000023E+02
             3.60100000000000023E+02   3.70100000000000023E+02   3.80100000000000023E+02   3.90100000000000023E+02   4.00100000000000023E+02
             4.10100000000000023E+02   4.20100000000000023E+02   4.30100000000000023E+02   4.40100000000000023E+02   4.50100000000000023E+02
             4.60100000000000023E+02   4.70100000000000023E+02   4.80100000000000023E+02   4.90100000000000023E+02   5.00100000000000023E+02
             5.10100000000000023E+02   5.20100000000000023E+02   5.30100000000000023E+02   5.40100000000000023E+02   5.50100000000000023E+02
             5.60100000000000023E+02   5.70100000000000023E+02   5.80100000000000023E+02   5.90100000000000023E+02   6.00100000000000023E+02
             6.10100000000000023E+02   6.20100000000000023E+02   6.30100000000000023E+02   6.40100000000000023E+02   6.50100000000000023E+02
             6.60100000000000023E+02   6.70100000000000023E+02   6.80100000000000023E+02   6.90100000000000023E+02   7.00100000000000023E+02
 ETA=   18   1.00999999999999996E+01   2.01000000000000014E+01   3.01000000000000014E+01   4.01000000000000014E+01   5.01000000000000014E+01
             6.01000000000000014E+01   7.00999999999999943E+01   8.00999999999999943E+01   9.00999999999999943E+01   1.00099999999999994E+02
             1.10099999999999994E+02   1.20099999999999994E+02   1.30099999999999994E+02   1.40099999999999994E+02   1.50099999999999994E+02
             1.60099999999999994E+02   1.70099999999999994E+02   1.80099999999999994E+02   1.90099999999999994E+02   2.00099999999999994E+02
             2.10099999999999994E+02   2.20099999999999994E+02   2.30099999999999994E+02   2.40099999999999994E+02   2.50099999999999994E+02
             2.60100000000000023E+02   2.70100000000000023E+02   2.80100000000000023E+02   2.90100000000000023E+02   3.00100000000000023E+02
             3.10100000000000023E+02   3.20100000000000023E+02   3.30100000000000023E+02   3.40100000000000023E+02   3.50100000000000023E+02
             3.60100000000000023E+02   3.70100000000000023E+02   3.80100000000000023E+02   3.90100000000000023E+02   4.00100000000000023E+02
             4.10100000000000023E+02   4.20100000000000023E+02   4.30100000000000023E+02   4.40100000000000023E+02   4.50100000000000023E+02
             4.60100000000000023E+02   4.70100000000000023E+02   4.80100000000000023E+02   4.90100000000000023E+02   5.00100000000000023E+02
             5.10100000000000023E+02   5.20100000000000023E+02   5.30100000000000023E+02   5.40100000000000023E+02   5.50100000000000023E+02
             5.60100000000000023E+02   5.70100000000000023E+02   5.80100000000000023E+02   5.90100000000000023E+02   6.00100000000000023E+02
             6.10100000000000023E+02   6.20100000000000023E+02   6.30100000000000023E+02   6.40100000000000023E+02   6.50100000000000023E+02
             6.60100000000000023E+02   6.70100000000000023E+02   6.80100000000000023E+02   6.90100000000000023E+02   7.00100000000000023E+02
 ETA=   19   1.00999999999999996E+01   2.01000000000000014E+01   3.01000000000000014E+01   4.01000000000000014E+01   5.01000000000000014E+01
             6.01000000000000014E+01   7.00999999999999943E+01   8.00999999999999943E+01   9.00999999999999943E+01   1.00099999999999994E+02
             1.10099999999999994E+02   1.20099999999999994E+02   1.30099999999999994E+02   1.40099999999999994E+02   1.50099999999999994E+02
             1.60099999999999994E+02   1.70099999999999994E+02   1.80099999999999994E+02   1.90099999999999994E+02   2.00099999999999994E+02
             2.10099999999999994E+02   2.20099999999999994E+02   2.30099999999999994E+02   2.40099999999999994E+02   2.50099999999999994E+02
             2.60100000000000023E+02   2.70100000000000023E+02   2.80100000000000023E+02   2.90100000000000023E+02   3.00100000000000023E+02
             3.10100000000000023E+02   3.20100000000000023E+02   3.30100000000000023E+02   3.40100000000000023E+02   3.50100000000000023E+02
             3.60100000000000023E+02   3.70100000000000023E+02   3.80100000000000023E+02   3.90100000000000023E+02   4.00100000000000023E+02
             4.10100000000000023E+02   4.20100000000000023E+02   4.30100000000000023E+02   4.40100000000000023E+02   4.50100000000000023E+02
             4.60100000000000023E+02   4.70100000000000023E+02   4.80100000000000023E+02   4.90100000000000023E+02   5.00100000000000023E+02
             5.10100000000000023E+02   5.20100000000000023E+02   5.30100000000000023E+02   5.40100000000000023E+02   5.50100000000000023E+02
             5.60100000000000023E+02   5.70100000000000023E+02   5.80100000000000023E+02   5.90100000000000023E+02   6.00100000000000023E+02
             6.10100000000000023E+02   6.20100000000000023E+02   6.30100000000000023E+02   6.40100000000000023E+02   6.50100000000000023E+02
             6.60100000000000023E+02   6.70100000000000023E+02   6.80100000000000023E+02   6.90100000000000023E+02   7.00100000000000023E+02
 ETA=   20   1.00999999999999996E+01   2.01000000000000014E+01   3.01000000000000014E+01   4.01000000000000014E+01   5.01000000000000014E+01
             6.01000000000000014E+01   7.00999999999999943E+01   8.00999999999999943E+01   9.00999999999999943E+01   1.00099999999999994E+02
             1.10099999999999994E+02   1.20099999999999994E+02   1.30099999999999994E+02   1.40099999999999994E+02   1.50099999999999994E+02
             1.60099999999999994E+02   1.70099999999999994E+02   1.80099999999999994E+02   1.90099999999999994E+02   2.00099999999999994E+02
             2.10099999999999994E+02   2.20099999999999994E+02   2.30099999999999994E+02   2.40099999999999994E+02   2.50099999999999994E+02
             2.60100000000000023E+02   2.70100000000000023E+02   2.80100000000000023E+02   2.90100000000000023E+02   3.00100000000000023E+02
             3.10100000000000023E+02   3.20100000000000023E+02   3.30100000000000023E+02   3.40100000000000023E+02   3.50100000000000023E+02
             3.60100000000000023E+02   3.70100000000000023E+02   3.80100000000000023E+02   3.90100000000000023E+02   4.00100000000000023E+02
             4.10100000000000023E+02   4.20100000000000023E+02   4.30100000000000023E+02   4.40100000000000023E+02   4.50100000000000023E+02
             4.60100000000000023E+02   4.70100000000000023E+02   4.80100000000000023E+02   4.90100000000000023E+02   5.00100000000000023E+02
             5.10100000000000023E+02   5.20100000000000023E+02   5.30100000000000023E+02   5.40100000000000023E+02   5.50100000000000023E+02
             5.60100000000000023E+02   5.70100000000000023E+02   5.80100000000000023E+02   5.90100000000000023E+02   6.00100000000000023E+02
             6.10100000000000023E+02   6.20100000000000023E+02   6.30100000000000023E+02   6.40100000000000023E+02   6.50100000000000023E+02
             6.60100000000000023E+02   6.70100000000000023E+02   6.80100000000000023E+02   6.90100000000000023E+02   7.00100000000000023E+02
 ETA=   21   1.00999999999999996E+01   2.01000000000000014E+01   3.01000000000000014E+01   4.01000000000000014E+01   5.01000000000000014E+01
             6.01000000000000014E+01   7.00999999999999943E+01   8.00999999999999943E+01   9.00999999999999943E+01   1.00099999999999994E+02
             1.10099999999999994E+02   1.20099999999999994E+02   1.30099999999999994E+02   1.40099999999999994E+02   1.50099999999999994E+02
             1.60099999999999994E+02   1.70099999999999994E+02   1.80099999999999994E+02   1.90099999999999994E+02   2.00099999999999994E+02
             2.10099999999999994E+02   2.20099999999999994E+02   2.30099999999999994E+02   2.40099999999999994E+02   2.50099999999999994E+02
             2.60100000000000023E+02   2.70100000000000023E+02   2.80100000000000023E+02   2.90100000000000023E+02   3.00100000000000023E+02
             3.10100000000000023E+02   3.20100000000000023E+02   3.30100000000000023E+02   3.40100000000000023E+02   3.50100000000000023E+02
             3.60100000000000023E+02   3.70100000000000023E+02   3.80100000000000023E+02   3.90100000000000023E+02   4.00100000000000023E+02
             4.10100000000000023E+02   4.20100000000000023E+02   4.30100000000000023E+02   4.40100000000000023E+02   4.50100000000000023E+02
             4.60100000000000023E+02   4.70100000000000023E+02   4.80100000000000023E+02   4.90100000000000023E+02   5.00100000000000023E+02
             5.10100000000000023E+02   5.20100000000000023E+02   5.30100000000000023E+02   5.40100000000000023E+02   5.50100000000000023E+02
             5.60100000000000023E+02   5.70100000000000023E+02   5.80100000000000023E+02   5.90100000000000023E+02   6.00100000000000023E+02
             6.10100000000000023E+02   6.20100000000000023E+02   6.30100000000000023E+02   6.40100000000000023E+02   6.50100000000000023E+02
             6.60100000000000023E+02   6.70100000000000023E+02   6.80100000000000023E+02   6.90100000000000023E+02   7.00100000000000023E+02
 ETA=   22   1.00999999999999996E+01   2.01000000000000014E+01   3.01000000000000014E+01   4.01000000000000014E+01   5.01000000000000014E+01
             6.01000000000000014E+01   7.00999999999999943E+01   8.00999999999999943E+01   9.00999999999999943E+01   1.00099999999999994E+02
             1.10099999999999994E+02   1.20099999999999994E+02   1.30099999999999994E+02   1.40099999999999994E+02   1.50099999999999994E+02
             1.60099999999999994E+02   1.70099999999999994E+02   1.80099999999999994E+02   1.90099999999999994E+02   2.00099999999999994E+02
             2.10099999999999994E+02   2.20099999999999994E+02   2.30099999999999994E+02   2.40099999999999994E+02   2.50099999999999994E+02
             2.60100000000000023E+02   2.70100000000000023E+02   2.80100000000000023E+02   2.90100000000000023E+02   3.00100000000000023E+02
             3.10100000000000023E+02   3.20100000000000023E+02   3.30100000000000023E+02   3.40100000000000023E+02   3.50100000000000023E+02
             3.60100000000000023E+02   3.70100000000000023E+02   3.80100000000000023E+02   3.90100000000000023E+02   4.00100000000000023E+02
             4.10100000000000023E+02   4.20100000000000023E+02   4.30100000000000023E+02   4.40100000000000023E+02   4.50100000000000023E+02
             4.60100000000000023E+02   4.70100000000000023E+02   4.80100000000000023E+02   4.90100000000000023E+02   5.00100000000000023E+02
             5.10100000000000023E+02   5.20100000000000023E+02   5.30100000000000023E+02   5.40100000000000023E+02   5.50100000000000023E+02
             5.60100000000000023E+02   5.70100000000000023E+02   5.80100000000000023E+02   5.90100000000000023E+02   6.00100000000000023E+02
             6.10100000000000023E+02   6.20100000000000023E+02   6.30100000000000023E+02   6.40100000000000023E+02   6.50100000000000023E+02
             6.60100000000000023E+02   6.70100000000000023E+02   6.80100000000000023E+02   6.90100000000000023E+02   7.00100000000000023E+02
 ETA=   23   1.00999999999999996E+01   2.01000000000000014E+01   3.01000000000000014E+01   4.01000000000000014E+01   5.01000000000000014E+01
             6.01000000000000014E+01   7.00999999999999943E+01   8.00999999999999943E+01   9.00999999999999943E+01   1.00099999999999994E+02
             1.10099999999999994E+02   1.20099999999999994E+02   1.30099999999999994E+02   1.40099999999999994E+02   1.50099999999999994E+02
             1.60099999999999994E+02   1.70099999999999994E+02   1.80099999999999994E+02   1.90099999999999994E+02   2.00099999999999994E+02
             2.10099999999999994E+02   2.20099999999999994E+02   2.30099999999999994E+02   2.40099999999999994E+02   2.50099999999999994E+02
             2.60100000000000023E+02   2.70100000000000023E+02   2.80100000000000023E+02   2.90100000000000023E+02   3.00100000000000023E+02
             3.10100000000000023E+02   3.20100000000000023E+02   3.30100000000000023E+02   3.40100000000000023E+02   3.50100000000000023E+02
             3.60100000000000023E+02   3.70100000000000023E+02   3.80100000000000023E+02   3.90100000000000023E+02   4.00100000000000023E+02
             4.10100000000000023E+02   4.20100000000000023E+02   4.30100000000000023E+02   4.40100000000000023E+02   4.50100000000000023E+02
             4.60100000000000023E+02   4.70100000000000023E+02   4.80100000000000023E+02   4.90100000000000023E+02   5.00100000000000023E+02
             5.10100000000000023E+02   5.20100000000000023E+02   5.30100000000000023E+02   5.40100000000000023E+02   5.50100000000000023E+02
             5.60100000000000023E+02   5.70100000000000023E+02   5.80100000000000023E+02   5.90100000000000023E+02   6.00100000000000023E+02
             6.10100000000000023E+02   6.20100000000000023E+02   6.30100000000000023E+02   6.40100000000000023E+02   6.50100000000000023E+02
             6.60100000000000023E+02   6.70100000000000023E+02   6.80100000000000023E+02   6.90100000000000023E+02   7.00100000000000023E+02
 ETA=   24   1.00999999999999996E+01   2.01000000000000014E+01   3.01000000000000014E+01   4.01000000000000014E+01   5.01000000000000014E+01
             6.01000000000000014E+01   7.00999999999999943E+01   8.00999999999999943E+01   9.00999999999999943E+01   1.00099999999999994E+02
             1.10099999999999994E+02   1.20099999999999994E+02   1.30099999999999994E+02   1.40099999999999994E+02   1.50099999999999994E+02
             1.60099999999999994E+02   1.70099999999999994E+02   1.80099999999999994E+02   1.90099999999999994E+02   2.00099999999999994E+02
             2.10099999999999994E+02   2.20099999999999994E+02   2.30099999999999994E+02   2.40099999999999994E+02   2.50099999999999994E+02
             2.60100000000000023E+02   2.70100000000000023E+02   2.80100000000000023E+02   2.90100000000000023E+02   3.00100000000000023E+02
             3.10100000000000023E+02   3.20100000000000023E+02   3.30100000000000023E+02   3.40100000000000023E+02   3.50100000000000023E+02
             3.60100000000000023E+02   3.70100000000000023E+02   3.80100000000000023E+02   3.90100000000000023E+02   4.00100000000000023E+02
             4.10100000000000023E+02   4.20100000000000023E+02   4.30100000000000023E+02   4.40100000000000023E+02   4.50100000000000023E+02
             4.60100000000000023E+02   4.70100000000000023E+02   4.80100000000000023E+02   4.90100000000000023E+02   5.00100000000000023E+02
             5.10100000000000023E+02   5.20100000000000023E+02   5.30100000000000023E+02   5.40100000000000023E+02   5.50100000000000023E+02
             5.60100000000000023E+02   5.70100000000000023E+02   5.80100000000000023E+02   5.90100000000000023E+02   6.00100000000000023E+02
             6.10100000000000023E+02   6.20100000000000023E+02   6.30100000000000023E+02   6.40100000000000023E+02   6.50100000000000023E+02
             6.60100000000000023E+02   6.70100000000000023E+02   6.80100000000000023E+02   6.90100000000000023E+02   7.00100000000000023E+02
 ETA=   25   1.00999999999999996E+01   2.01000000000000014E+01   3.01000000000000014E+01   4.01000000000000014E+01   5.01000000000000014E+01
             6.01000000000000014E+01   7.00999999999999943E+01   8.00999999999999943E+01   9.00999999999999943E+01   1.00099999999999994E+02
             1.10099999999999994E+02   1.20099999999999994E+02   1.30099999999999994E+02   1.40099999999999994E+02   1.50099999999999994E+02
             1.60099999999999994E+02   1.70099999999999994E+02   1.80099999999999994E+02   1.90099999999999994E+02   2.00099999999999994E+02
             2.10099999999999994E+02   2.20099999999999994E+02   2.30099999999999994E+02   2.40099999999999994E+02   2.50099999999999994E+02
             2.60100000000000023E+02   2.70100000000000023E+02   2.80100000000000023E+02   2.90100000000000023E+02   3.00100000000000023E+02
             3.10100000000000023E+02   3.20100000000000023E+02   3.30100000000000023E+02   3.40100000000000023E+02   3.50100000000000023E+02
             3.60100000000000023E+02   3.70100000000000023E+02   3.80100000000000023E+02   3.90100000000000023E+02   4.00100000000000023E+02
             4.10100000000000023E+02   4.20100000000000023E+02   4.30100000000000023E+02   4.40100000000000023E+02   4.50100000000000023E+02
             4.60100000000000023E+02   4.70100000000000023E+02   4.80100000000000023E+02   4.90100000000000023E+02   5.00100000000000023E+02
             5.10100000000000023E+02   5.20100000000000023E+02   5.30100000000000023E+02   5.40100000000000023E+02   5.50100000000000023E+02
             5.60100000000000023E+02   5.70100000000000023E+02   5.80100000000000023E+02   5.90100000000000023E+02   6.00100000000000023E+02
             6.10100000000000023E+02   6.20100000000000023E+02   6.30100000000000023E+02   6.40100000000000023E+02   6.50100000000000023E+02
             6.60100000000000023E+02   6.70100000000000023E+02   6.80100000000000023E+02   6.90100000000000023E+02   7.00100000000000023E+02
 ETA=   26   1.00999999999999996E+01   2.01000000000000014E+01   3.01000000000000014E+01   4.01000000000000014E+01   5.01000000000000014E+01
             6.01000000000000014E+01   7.00999999999999943E+01   8.00999999999999943E+01   9.00999999999999943E+01   1.00099999999999994E+02
             1.10099999999999994E+02   1.20099999999999994E+02   1.30099999999999994E+02   1.40099999999999994E+02   1.50099999999999994E+02
             1.60099999999999994E+02   1.70099999999999994E+02   1.80099999999999994E+02   1.90099999999999994E+02   2.00099999999999994E+02
             2.10099999999999994E+02   2.20099999999999994E+02   2.30099999999999994E+02   2.40099999999999994E+02   2.50099999999999994E+02
             2.60100000000000023E+02   2.70100000000000023E+02   2.80100000000000023E+02   2.90100000000000023E+02   3.00100000000000023E+02
             3.10100000000000023E+02   3.20100000000000023E+02   3.30100000000000023E+02   3.40100000000000023E+02   3.50100000000000023E+02
             3.60100000000000023E+02   3.70100000000000023E+02   3.80100000000000023E+02   3.90100000000000023E+02   4.00100000000000023E+02
             4.10100000000000023E+02   4.20100000000000023E+02   4.30100000000000023E+02   4.40100000000000023E+02   4.50100000000000023E+02
             4.60100000000000023E+02   4.70100000000000023E+02   4.80100000000000023E+02   4.90100000000000023E+02   5.00100000000000023E+02
             5.10100000000000023E+02   5.20100000000000023E+02   5.30100000000000023E+02   5.40100000000000023E+02   5.50100000000000023E+02
             5.60100000000000023E+02   5.70100000000000023E+02   5.80100000000000023E+02   5.90100000000000023E+02   6.00100000000000023E+02
             6.10100000000000023E+02   6.20100000000000023E+02   6.30100000000000023E+02   6.40100000000000023E+02   6.50100000000000023E+02
             6.60100000000000023E+02   6.70100000000000023E+02   6.80100000000000023E+02   6.90100000000000023E+02   7.00100000000000023E+02
 ETA=   27   1.00999999999999996E+01   2.01000000000000014E+01   3.01000000000000014E+01   4.01000000000000014E+01   5.01000000000000014E+01
             6.01000000000000014E+01   7.00999999999999943E+01   8.00999999999999943E+01   9.00999999999999943E+01   1.00099999999999994E+02
             1.10099999999999994E+02   1.20099999999999994E+02   1.30099999999999994E+02   1.40099999999999994E+02   1.50099999999999994E+02
             1.60099999999999994E+02   1.70099999999999994E+02   1.80099999999999994E+02   1.90099999999999994E+02   2.00099999999999994E+02
             2.10099999999999994E+02   2.20099999999999994E+02   2.30099999999999994E+02   2.40099999999999994E+02   2.50099999999999994E+02
             2.60100000000000023E+02   2.70100000000000023E+02   2.80100000000000023E+02   2.90100000000000023E+02   3.00100000000000023E+02
             3.10100000000000023E+02   3.20100000000000023E+02   3.30100000000000023E+02   3.40100000000000023E+02   3.50100000000000023E+02
             3.60100000000000023E+02   3.70100000000000023E+02   3.80100000000000023E+02   3.90100000000000023E+02   4.00100000000000023E+02
             4.10100000000000023E+02   4.20100000000000023E+02   4.30100000000000023E+02   4.40100000000000023E+02   4.50100000000000023E+02
             4.60100000000000023E+02   4.70100000000000023E+02   4.80100000000000023E+02   4.90100000000000023E+02   5.00100000000000023E+02
             5.10100000000000023E+02   5.20100000000000023E+02   5.30100000000000023E+02   5.40100000000000023E+02   5.50100000000000023E+02
             5.60100000000000023E+02   5.70100000000000023E+02   5.80100000000000023E+02   5.90100000000000023E+02   6.00100000000000023E+02
             6.10100000000000023E+02   6.20100000000000023E+02   6.30100000000000023E+02   6.40100000000000023E+02   6.50100000000000023E+02
             6.60100000000000023E+02   6.70100000000000023E+02   6.80100000000000023E+02   6.90100000000000023E+02   7.00100000000000023E+02
 ETA=   28   1.00999999999999996E+01   2.01000000000000014E+01   3.01000000000000014E+01   4.01000000000000014E+01   5.01000000000000014E+01
             6.01000000000000014E+01   7.00999999999999943E+01   8.00999999999999943E+01   9.00999999999999943E+01   1.00099999999999994E+02
             1.10099999999999994E+02   1.20099999999999994E+02   1.30099999999999994E+02   1.40099999999999994E+02   1.50099999999999994E+02
             1.60099999999999994E+02   1.70099999999999994E+02   1.80099999999999994E+02   1.90099999999999994E+02   2.00099999999999994E+02
             2.10099999999999994E+02   2.20099999999999994E+02   2.30099999999999994E+02   2.40099999999999994E+02   2.50099999999999994E+02
             2.60100000000000023E+02   2.70100000000000023E+02   2.80100000000000023E+02   2.90100000000000023E+02   3.00100000000000023E+02
             3.10100000000000023E+02   3.20100000000000023E+02   3.30100000000000023E+02   3.40100000000000023E+02   3.50100000000000023E+02
             3.60100000000000023E+02   3.70100000000000023E+02   3.80100000000000023E+02   3.90100000000000023E+02   4.00100000000000023E+02
             4.10100000000000023E+02   4.20100000000000023E+02   4.30100000000000023E+02   4.40100000000000023E+02   4.50100000000000023E+02
             4.60100000000000023E+02   4.70100000000000023E+02   4.80100000000000023E+02   4.90100000000000023E+02   5.00100000000000023E+02
             5.10100000000000023E+02   5.20100000000000023E+02   5.30100000000000023E+02   5.40100000000000023E+02   5.50100000000000023E+02
             5.60100000000000023E+02   5.70100000000000023E+02   5.80100000000000023E+02   5.90100000000000023E+02   6.00100000000000023E+02
             6.10100000000000023E+02   6.20100000000000023E+02   6.30100000000000023E+02   6.40100000000000023E+02   6.50100000000000023E+02
             6.60100000000000023E+02   6.70100000000000023E+02   6.80100000000000023E+02   6.90100000000000023E+02   7.00100000000000023E+02
 ETA=   29   1.00999999999999996E+01   2.01000000000000014E+01   3.01000000000000014E+01   4.01000000000000014E+01   5.01000000000000014E+01
             6.01000000000000014E+01   7.00999999999999943E+01   8.00999999999999943E+01   9.00999999999999943E+01   1.00099999999999994E+02
             1.10099999999999994E+02   1.20099999999999994E+02   1.30099999999999994E+02   1.40099999999999994E+02   1.50099999999999994E+02
             1.60099999999999994E+02   1.70099999999999994E+02   1.80099999999999994E+02   1.90099999999999994E+02   2.00099999999999994E+02
             2.10099999999999994E+02   2.20099999999999994E+02   2.30099999999999994E+02   2.40099999999999994E+02   2.50099999999999994E+02
             2.60100000000000023E+02   2.70100000000000023E+02   2.80100000000000023E+02   2.90100000000000023E+02   3.00100000000000023E+02
             3.10100000000000023E+02   3.20100000000000023E+02   3.30100000000000023E+02   3.40100000000000023E+02   3.50100000000000023E+02
             3.60100000000000023E+02   3.70100000000000023E+02   3.80100000000000023E+02   3.90100000000000023E+02   4.00100000000000023E+02
             4.10100000000000023E+02   4.20100000000000023E+02   4.30100000000000023E+02   4.40100000000000023E+02   4.50100000000000023E+02
             4.60100000000000023E+02   4.70100000000000023E+02   4.80100000000000023E+02   4.90100000000000023E+02   5.00100000000000023E+02
             5.10100000000000023E+02   5.20100000000000023E+02   5.30100000000000023E+02   5.40100000000000023E+02   5.50100000000000023E+02
             5.60100000000000023E+02   5.70100000000000023E+02   5.80100000000000023E+02   5.90100000000000023E+02   6.00100000000000023E+02
             6.10100000000000023E+02   6.20100000000000023E+02   6.30100000000000023E+02   6.40100000000000023E+02   6.50100000000000023E+02
             6.60100000000000023E+02   6.70100000000000023E+02   6.80100000000000023E+02   6.90100000000000023E+02   7.00100000000000023E+02
 ETA=   30   1.00999999999999996E+01   2.01000000000000014E+01   3.01000000000000014E+01   4.01000000000000014E+01   5.01000000000000014E+01
             6.01000000000000014E+01   7.00999999999999943E+01   8.00999999999999943E+01   9.00999999999999943E+01   1.00099999999999994E+02
             1.10099999999999994E+02   1.20099999999999994E+02   1.30099999999999994E+02   1.40099999999999994E+02   1.50099999999999994E+02
             1.60099999999999994E+02   1.70099999999999994E+02   1.80099999999999994E+02   1.90099999999999994E+02   2.00099999999999994E+02
             2.10099999999999994E+02   2.20099999999999994E+02   2.30099999999999994E+02   2.40099999999999994E+02   2.50099999999999994E+02
             2.60100000000000023E+02   2.70100000000000023E+02   2.80100000000000023E+02   2.90100000000000023E+02   3.00100000000000023E+02
             3.10100000000000023E+02   3.20100000000000023E+02   3.30100000000000023E+02   3.40100000000000023E+02   3.50100000000000023E+02
             3.60100000000000023E+02   3.70100000000000023E+02   3.80100000000000023E+02   3.90100000000000023E+02   4.00100000000000023E+02
             4.10100000000000023E+02   4.20100000000000023E+02   4.30100000000000023E+02   4.40100000000000023E+02   4.50100000000000023E+02
             4.60100000000000023E+02   4.70100000000000023E+02   4.80100000000000023E+02   4.90100000000000023E+02   5.00100000000000023E+02
             5.10100000000000023E+02   5.20100000000000023E+02   5.30100000000000023E+02   5.40100000000000023E+02   5.50100000000000023E+02
             5.60100000000000023E+02   5.70100000000000023E+02   5.80100000000000023E+02   5.90100000000000023E+02   6.00100000000000023E+02
             6.10100000000000023E+02   6.20100000000000023E+02   6.30100000000000023E+02   6.40100000000000023E+02   6.50100000000000023E+02
             6.60100000000000023E+02   6.70100000000000023E+02   6.80100000000000023E+02   6.90100000000000023E+02   7.00100000000000023E+02
 ETA=   31   1.00999999999999996E+01   2.01000000000000014E+01   3.01000000000000014E+01   4.01000000000000014E+01   5.01000000000000014E+01
             6.01000000000000014E+01   7.00999999999999943E+01   8.00999999999999943E+01   9.00999999999999943E+01   1.00099999999999994E+02
             1.10099999999999994E+02   1.20099999999999994E+02   1.30099999999999994E+02   1.40099999999999994E+02   1.50099999999999994E+02
             1.60099999999999994E+02   1.70099999999999994E+02   1.80099999999999994E+02   1.90099999999999994E+02   2.00099999999999994E+02
             2.10099999999999994E+02   2.20099999999999994E+02   2.30099999999999994E+02   2.40099999999999994E+02   2.50099999999999994E+02
             2.60100000000000023E+02   2.70100000000000023E+02   2.80100000000000023E+02   2.90100000000000023E+02   3.00100000000000023E+02
             3.10100000000000023E+02   3.20100000000000023E+02   3.30100000000000023E+02   3.40100000000000023E+02   3.50100000000000023E+02
             3.60100000000000023E+02   3.70100000000000023E+02   3.80100000000000023E+02   3.90100000000000023E+02   4.00100000000000023E+02
             4.10100000000000023E+02   4.20100000000000023E+02   4.30100000000000023E+02   4.40100000000000023E+02   4.50100000000000023E+02
             4.60100000000000023E+02   4.70100000000000023E+02   4.80100000000000023E+02   4.90100000000000023E+02   5.00100000000000023E+02
             5.10100000000000023E+02   5.20100000000000023E+02   5.30100000000000023E+02   5.40100000000000023E+02   5.50100000000000023E+02
             5.60100000000000023E+02   5.70100000000000023E+02   5.80100000000000023E+02   5.90100000000000023E+02   6.00100000000000023E+02
             6.10100000000000023E+02   6.20100000000000023E+02   6.30100000000000023E+02   6.40100000000000023E+02   6.50100000000000023E+02
             6.60100000000000023E+02   6.70100000000000023E+02   6.80100000000000023E+02   6.90100000000000023E+02   7.00100000000000023E+02
 ETA=   32   1.00999999999999996E+01   2.01000000000000014E+01   3.01000000000000014E+01   4.01000000000000014E+01   5.01000000000000014E+01
             6.01000000000000014E+01   7.00999999999999943E+01   8.00999999999999943E+01   9.00999999999999943E+01   1.00099999999999994E+02
             1.10099999999999994E+02   1.20099999999999994E+02   1.30099999999999994E+02   1.40099999999999994E+02   1.50099999999999994E+02
             1.60099999999999994E+02   1.70099999999999994E+02   1.80099999999999994E+02   1.90099999999999994E+02   2.00099999999999994E+02
             2.10099999999999994E+02   2.20099999999999994E+02   2.30099999999999994E+02   2.40099999999999994E+02   2.50099999999999994E+02
             2.60100000000000023E+02   2.70100000000000023E+02   2.80100000000000023E+02   2.90100000000000023E+02   3.00100000000000023E+02
             3.10100000000000023E+02   3.20100000000000023E+02   3.30100000000000023E+02   3.40100000000000023E+02   3.50100000000000023E+02
             3.60100000000000023E+02   3.70100000000000023E+02   3.80100000000000023E+02   3.90100000000000023E+02   4.00100000000000023E+02
             4.10100000000000023E+02   4.20100000000000023E+02   4.30100000000000023E+02   4.40100000000000023E+02   4.50100000000000023E+02
             4.60100000000000023E+02   4.70100000000000023E+02   4.80100000000000023E+02   4.90100000000000023E+02   5.00100000000000023E+02
             5.10100000000000023E+02   5.20100000000000023E+02   5.30100000000000023E+02   5.40100000000000023E+02   5.50100000000000023E+02
             5.60100000000000023E+02   5.70100000000000023E+02   5.80100000000000023E+02   5.90100000000000023E+02   6.00100000000000023E+02
             6.10100000000000023E+02   6.20100000000000023E+02   6.30100000000000023E+02   6.40100000000000023E+02   6.50100000000000023E+02
             6.60100000000000023E+02   6.70100000000000023E+02   6.80100000000000023E+02   6.90100000000000023E+02   7.00100000000000023E+02
 ETA=   33   1.00999999999999996E+01   2.01000000000000014E+01   3.01000000000000014E+01   4.01000000000000014E+01   5.01000000000000014E+01
             6.01000000000000014E+01   7.00999999999999943E+01   8.00999999999999943E+01   9.00999999999999943E+01   1.00099999999999994E+02
             1.10099999999999994E+02   1.20099999999999994E+02   1.30099999999999994E+02   1.40099999999999994E+02   1.50099999999999994E+02
             1.60099999999999994E+02   1.70099999999999994E+02   1.80099999999999994E+02   1.90099999999999994E+02   2.00099999999999994E+02
             2.10099999999999994E+02   2.20099999999999994E+02   2.30099999999999994E+02   2.40099999999999994E+02   2.50099999999999994E+02
             2.60100000000000023E+02   2.70100000000000023E+02   2.80100000000000023E+02   2.90100000000000023E+02   3.00100000000000023E+02
             3.10100000000000023E+02   3.20100000000000023E+02   3.30100000000000023E+02   3.40100000000000023E+02   3.50100000000000023E+02
             3.60100000000000023E+02   3.70100000000000023E+02   3.80100000000000023E+02   3.90100000000000023E+02   4.00100000000000023E+02
             4.10100000000000023E+02   4.20100000000000023E+02   4.30100000000000023E+02   4.40100000000000023E+02   4.50100000000000023E+02
             4.60100000000000023E+02   4.70100000000000023E+02   4.80100000000000023E+02   4.90100000000000023E+02   5.00100000000000023E+02
             5.10100000000000023E+02   5.20100000000000023E+02   5.30100000000000023E+02   5.40100000000000023E+02   5.50100000000000023E+02
             5.60100000000000023E+02   5.70100000000000023E+02   5.80100000000000023E+02   5.90100000000000023E+02   6.00100000000000023E+02
             6.10100000000000023E+02   6.20100000000000023E+02   6.30100000000000023E+02   6.40100000000000023E+02   6.50100000000000023E+02
             6.60100000000000023E+02   6.70100000000000023E+02   6.80100000000000023E+02   6.90100000000000023E+02   7.00100000000000023E+02
 ETA=   34   1.00999999999999996E+01   2.01000000000000014E+01   3.01000000000000014E+01   4.01000000000000014E+01   5.01000000000000014E+01
             6.01000000000000014E+01   7.00999999999999943E+01   8.00999999999999943E+01   9.00999999999999943E+01   1.00099999999999994E+02
             1.10099999999999994E+02   1.20099999999999994E+02   1.30099999999999994E+02   1.40099999999999994E+02   1.50099999999999994E+02
             1.60099999999999994E+02   1.70099999999999994E+02   1.80099999999999994E+02   1.90099999999999994E+02   2.00099999999999994E+02
             2.10099999999999994E+02   2.20099999999999994E+02   2.30099999999999994E+02   2.40099999999999994E+02   2.50099999999999994E+02
             2.60100000000000023E+02   2.70100000000000023E+02   2.80100000000000023E+02   2.90100000000000023E+02   3.00100000000000023E+02
             3.10100000000000023E+02   3.20100000000000023E+02   3.30100000000000023E+02   3.40100000000000023E+02   3.50100000000000023E+02
             3.60100000000000023E+02   3.70100000000000023E+02   3.80100000000000023E+02   3.90100000000000023E+02   4.00100000000000023E+02
             4.10100000000000023E+02   4.20100000000000023E+02   4.30100000000000023E+02   4.40100000000000023E+02   4.50100000000000023E+02
             4.60100000000000023E+02   4.70100000000000023E+02   4.80100000000000023E+02   4.90100000000000023E+02   5.00100000000000023E+02
             5.10100000000000023E+02   5.20100000000000023E+02   5.30100000000000023E+02   5.40100000000000023E+02   5.50100000000000023E+02
             5.60100000000000023E+02   5.70100000000000023E+02   5.80100000000000023E+02   5.90100000000000023E+02   6.00100000000000023E+02
             6.10100000000000023E+02   6.20100000000000023E+02   6.30100000000000023E+02   6.40100000000000023E+02   6.50100000000000023E+02
             6.60100000000000023E+02   6.70100000000000023E+02   6.80100000000000023E+02   6.90100000000000023E+02   7.00100000000000023E+02
 ETA=   35   1.00999999999999996E+01   2.01000000000000014E+01   3.01000000000000014E+01   4.01000000000000014E+01   5.01000000000000014E+01
             6.01000000000000014E+01   7.00999999999999943E+01   8.00999999999999943E+01   9.00999999999999943E+01   1.00099999999999994E+02
             1.10099999999999994E+02   1.20099999999999994E+02   1.30099999999999994E+02   1.40099999999999994E+02   1.50099999999999994E+02
             1.60099999999999994E+02   1.70099999999999994E+02   1.80099999999999994E+02   1.90099999999999994E+02   2.00099999999999994E+02
             2.10099999999999994E+02   2.20099999999999994E+02   2.30099999999999994E+02   2.40099999999999994E+02   2.50099999999999994E+02
             2.60100000000000023E+02   2.70100000000000023E+02   2.80100000000000023E+02   2.90100000000000023E+02   3.00100000000000023E+02
             3.10100000000000023E+02   3.20100000000000023E+02   3.30100000000000023E+02   3.40100000000000023E+02   3.50100000000000023E+02
             3.60100000000000023E+02   3.70100000000000023E+02   3.80100000000000023E+02   3.90100000000000023E+02   4.00100000000000023E+02
             4.10100000000000023E+02   4.20100000000000023E+02   4.30100000000000023E+02   4.40100000000000023E+02   4.50100000000000023E+02
             4.60100000000000023E+02   4.70100000000000023E+02   4.80100000000000023E+02   4.90100000000000023E+02   5.00100000000000023E+02
             5.10100000000000023E+02   5.20100000000000023E+02   5.30100000000000023E+02   5.40100000000000023E+02   5.50100000000000023E+02
             5.60100000000000023E+02   5.70100000000000023E+02   5.80100000000000023E+02   5.90100000000000023E+02   6.00100000000000023E+02
             6.10100000000000023E+02   6.20100000000000023E+02   6.30100000000000023E+02   6.40100000000000023E+02   6.50100000000000023E+02
             6.60100000000000023E+02   6.70100000000000023E+02   6.80100000000000023E+02   6.90100000000000023E+02   7.00100000000000023E+02
 ETA=   36   1.00999999999999996E+01   2.01000000000000014E+01   3.01000000000000014E+01   4.01000000000000014E+01   5.01000000000000014E+01
             6.01000000000000014E+01   7.00999999999999943E+01   8.00999999999999943E+01   9.00999999999999943E+01   1.00099999999999994E+02
             1.10099999999999994E+02   1.20099999999999994E+02   1.30099999999999994E+02   1.40099999999999994E+02   1.50099999999999994E+02
             1.60099999999999994E+02   1.70099999999999994E+02   1.80099999999999994E+02   1.90099999999999994E+02   2.00099999999999994E+02
             2.10099999999999994E+02   2.20099999999999994E+02   2.30099999999999994E+02   2.40099999999999994E+02   2.50099999999999994E+02
             2.60100000000000023E+02   2.70100000000000023E+02   2.80100000000000023E+02   2.90100000000000023E+02   3.00100000000000023E+02
             3.10100000000000023E+02   3.20100000000000023E+02   3.30100000000000023E+02   3.40100000000000023E+02   3.50100000000000023E+02
             3.60100000000000023E+02   3.70100000000000023E+02   3.80100000000000023E+02   3.90100000000000023E+02   4.00100000000000023E+02
             4.10100000000000023E+02   4.20100000000000023E+02   4.30100000000000023E+02   4.40100000000000023E+02   4.50100000000000023E+02
             4.60100000000000023E+02   4.70100000000000023E+02   4.80100000000000023E+02   4.90100000000000023E+02   5.00100000000000023E+02
             5.10100000000000023E+02   5.20100000000000023E+02   5.30100000000000023E+02   5.40100000000000023E+02   5.50100000000000023E+02
             5.60100000000000023E+02   5.70100000000000023E+02   5.80100000000000023E+02   5.90100000000000023E+02   6.00100000000000023E+02
             6.10100000000000023E+02   6.20100000000000023E+02   6.30100000000000023E+02   6.40100000000000023E+02   6.50100000000000023E+02
             6.60100000000000023E+02   6.70100000000000023E+02   6.80100000000000023E+02   6.90100000000000023E+02   7.00100000000000023E+02
 ETA=   37   1.00999999999999996E+01   2.01000000000000014E+01   3.01000000000000014E+01   4.01000000000000014E+01   5.01000000000000014E+01
             6.01000000000000014E+01   7.00999999999999943E+01   8.00999999999999943E+01   9.00999999999999943E+01   1.00099999999999994E+02
             1.10099999999999994E+02   1.20099999999999994E+02   1.30099999999999994E+02   1.40099999999999994E+02   1.50099999999999994E+02
             1.60099999999999994E+02   1.70099999999999994E+02   1.80099999999999994E+02   1.90099999999999994E+02   2.00099999999999994E+02
             2.10099999999999994E+02   2.20099999999999994E+02   2.30099999999999994E+02   2.40099999999999994E+02   2.50099999999999994E+02
             2.60100000000000023E+02   2.70100000000000023E+02   2.80100000000000023E+02   2.90100000000000023E+02   3.00100000000000023E+02
             3.10100000000000023E+02   3.20100000000000023E+02   3.30100000000000023E+02   3.40100000000000023E+02   3.50100000000000023E+02
             3.60100000000000023E+02   3.70100000000000023E+02   3.80100000000000023E+02   3.90100000000000023E+02   4.00100000000000023E+02
             4.10100000000000023E+02   4.20100000000000023E+02   4.30100000000000023E+02   4.40100000000000023E+02   4.50100000000000023E+02
             4.60100000000000023E+02   4.70100000000000023E+02   4.80100000000000023E+02   4.90100000000000023E+02   5.00100000000000023E+02
             5.10100000000000023E+02   5.20100000000000023E+02   5.30100000000000023E+02   5.40100000000000023E+02   5.50100000000000023E+02
             5.60100000000000023E+02   5.70100000000000023E+02   5.80100000000000023E+02   5.90100000000000023E+02   6.00100000000000023E+02
             6.10100000000000023E+02   6.20100000000000023E+02   6.30100000000000023E+02   6.40100000000000023E+02   6.50100000000000023E+02
             6.60100000000000023E+02   6.70100000000000023E+02   6.80100000000000023E+02   6.90100000000000023E+02   7.00100000000000023E+02
 ETA=   38   1.00999999999999996E+01   2.01000000000000014E+01   3.01000000000000014E+01   4.01000000000000014E+01   5.01000000000000014E+01
             6.01000000000000014E+01   7.00999999999999943E+01   8.00999999999999943E+01   9.00999999999999943E+01   1.00099999999999994E+02
             1.10099999999999994E+02   1.20099999999999994E+02   1.30099999999999994E+02   1.40099999999999994E+02   1.50099999999999994E+02
             1.60099999999999994E+02   1.70099999999999994E+02   1.80099999999999994E+02   1.90099999999999994E+02   2.00099999999999994E+02
             2.10099999999999994E+02   2.20099999999999994E+02   2.30099999999999994E+02   2.40099999999999994E+02   2.50099999999999994E+02
             2.60100000000000023E+02   2.70100000000000023E+02   2.80100000000000023E+02   2.90100000000000023E+02   3.00100000000000023E+02
             3.10100000000000023E+02   3.20100000000000023E+02   3.30100000000000023E+02   3.40100000000000023E+02   3.50100000000000023E+02
             3.60100000000000023E+02   3.70100000000000023E+02   3.80100000000000023E+02   3.90100000000000023E+02   4.00100000000000023E+02
             4.10100000000000023E+02   4.20100000000000023E+02   4.30100000000000023E+02   4.40100000000000023E+02   4.50100000000000023E+02
             4.60100000000000023E+02   4.70100000000000023E+02   4.80100000000000023E+02   4.90100000000000023E+02   5.00100000000000023E+02
             5.10100000000000023E+02   5.20100000000000023E+02   5.30100000000000023E+02   5.40100000000000023E+02   5.50100000000000023E+02
             5.60100000000000023E+02   5.70100000000000023E+02   5.80100000000000023E+02   5.90100000000000023E+02   6.00100000000000023E+02
             6.10100000000000023E+02   6.20100000000000023E+02   6.30100000000000023E+02   6.40100000000000023E+02   6.50100000000000023E+02
             6.60100000000000023E+02   6.70100000000000023E+02   6.80100000000000023E+02   6.90100000000000023E+02   7.00100000000000023E+02
 ETA=   39   1.00999999999999996E+01   2.01000000000000014E+01   3.01000000000000014E+01   4.01000000000000014E+01   5.01000000000000014E+01
             6.01000000000000014E+01   7.00999999999999943E+01   8.00999999999999943E+01   9.00999999999999943E+01   1.00099999999999994E+02
             1.10099999999999994E+02   1.20099999999999994E+02   1.30099999999999994E+02   1.40099999999999994E+02   1.50099999999999994E+02
             1.60099999999999994E+02   1.70099999999999994E+02   1.80099999999999994E+02   1.90099999999999994E+02   2.00099999999999994E+02
             2.10099999999999994E+02   2.20099999999999994E+02   2.30099999999999994E+02   2.40099999999999994E+02   2.50099999999999994E+02
             2.60100000000000023E+02   2.70100000000000023E+02   2.80100000000000023E+02   2.90100000000000023E+02   3.00100000000000023E+02
             3.10100000000000023E+02   3.20100000000000023E+02   3.30100000000000023E+02   3.40100000000000023E+02   3.50100000000000023E+02
             3.60100000000000023E+02   3.70100000000000023E+02   3.80100000000000023E+02   3.90100000000000023E+02   4.00100000000000023E+02
             4.10100000000000023E+02   4.20100000000000023E+02   4.30100000000000023E+02   4.40100000000000023E+02   4.50100000000000023E+02
             4.60100000000000023E+02   4.70100000000000023E+02   4.80100000000000023E+02   4.90100000000000023E+02   5.00100000000000023E+02
             5.10100000000000023E+02   5.20100000000000023E+02   5.30100000000000023E+02   5.40100000000000023E+02   5.50100000000000023E+02
             5.60100000000000023E+02   5.70100000000000023E+02   5.80100000000000023E+02   5.90100000000000023E+02   6.00100000000000023E+02
             6.10100000000000023E+02   6.20100000000000023E+02   6.30100000000000023E+02   6.40100000000000023E+02   6.50100000000000023E+02
             6.60100000000000023E+02   6.70100000000000023E+02   6.80100000000000023E+02   6.90100000000000023E+02   7.00100000000000023E+02
 ETA=   40   1.00999999999999996E+01   2.01000000000000014E+01   3.01000000000000014E+01   4.01000000000000014E+01   5.01000000000000014E+01
             6.01000000000000014E+01   7.00999999999999943E+01   8.00999999999999943E+01   9.00999999999999943E+01   1.00099999999999994E+02
             1.10099999999999994E+02   1.20099999999999994E+02   1.30099999999999994E+02   1.40099999999999994E+02   1.50099999999999994E+02
             1.60099999999999994E+02   1.70099999999999994E+02   1.80099999999999994E+02   1.90099999999999994E+02   2.00099999999999994E+02
             2.10099999999999994E+02   2.20099999999999994E+02   2.30099999999999994E+02   2.40099999999999994E+02   2.50099999999999994E+02
             2.60100000000000023E+02   2.70100000000000023E+02   2.80100000000000023E+02   2.90100000000000023E+02   3.00100000000000023E+02
             3.10100000000000023E+02   3.20100000000000023E+02   3.30100000000000023E+02   3.40100000000000023E+02   3.50100000000000023E+02
             3.60100000000000023E+02   3.70100000000000023E+02   3.80100000000000023E+02   3.90100000000000023E+02   4.00100000000000023E+02
             4.10100000000000023E+02   4.20100000000000023E+02   4.30100000000000023E+02   4.40100000000000023E+02   4.50100000000000023E+02
             4.60100000000000023E+02   4.70100000000000023E+02   4.80100000000000023E+02   4.90100000000000023E+02   5.00100000000000023E+02
             5.10100000000000023E+02   5.20100000000000023E+02   5.30100000000000023E+02   5.40100000000000023E+02   5.50100000000000023E+02
             5.60100000000000023E+02   5.70100000000000023E+02   5.80100000000000023E+02   5.90100000000000023E+02   6.00100000000000023E+02
             6.10100000000000023E+02   6.20100000000000023E+02   6.30100000000000023E+02   6.40100000000000023E+02   6.50100000000000023E+02
             6.60100000000000023E+02   6.70100000000000023E+02   6.80100000000000023E+02   6.90100000000000023E+02   7.00100000000000023E+02
 ETA=   41   1.00999999999999996E+01   2.01000000000000014E+01   3.01000000000000014E+01   4.01000000000000014E+01   5.01000000000000014E+01
             6.01000000000000014E+01   7.00999999999999943E+01   8.00999999999999943E+01   9.00999999999999943E+01   1.00099999999999994E+02
             1.10099999999999994E+02   1.20099999999999994E+02   1.30099999999999994E+02   1.40099999999999994E+02   1.50099999999999994E+02
             1.60099999999999994E+02   1.70099999999999994E+02   1.80099999999999994E+02   1.90099999999999994E+02   2.00099999999999994E+02
             2.10099999999999994E+02   2.20099999999999994E+02   2.30099999999999994E+02   2.40099999999999994E+02   2.50099999999999994E+02
             2.60100000000000023E+02   2.70100000000000023E+02   2.80100000000000023E+02   2.90100000000000023E+02   3.00100000000000023E+02
[...]
             1.28990000000000009E+03   1.28990000000000009E+03   1.28990000000000009E+03   1.28990000000000009E+03   1.28990000000000009E+03
 ETA=   72   1.30990000000000009E+03   1.30990000000000009E+03   1.30990000000000009E+03   1.30990000000000009E+03   1.30990000000000009E+03
             1.30990000000000009E+03   1.30990000000000009E+03   1.30990000000000009E+03   1.30990000000000009E+03   1.30990000000000009E+03
             1.30990000000000009E+03   1.30990000000000009E+03   1.30990000000000009E+03   1.30990000000000009E+03   1.30990000000000009E+03
             1.30990000000000009E+03   1.30990000000000009E+03   1.30990000000000009E+03   1.30990000000000009E+03   1.30990000000000009E+03
             1.30990000000000009E+03   1.30990000000000009E+03   1.30990000000000009E+03   1.30990000000000009E+03   1.30990000000000009E+03
             1.30990000000000009E+03   1.30990000000000009E+03   1.30990000000000009E+03   1.30990000000000009E+03   1.30990000000000009E+03
             1.30990000000000009E+03   1.30990000000000009E+03   1.30990000000000009E+03   1.30990000000000009E+03   1.30990000000000009E+03
             1.30990000000000009E+03   1.30990000000000009E+03   1.30990000000000009E+03   1.30990000000000009E+03   1.30990000000000009E+03
             1.30990000000000009E+03   1.30990000000000009E+03   1.30990000000000009E+03   1.30990000000000009E+03   1.30990000000000009E+03
             1.30990000000000009E+03   1.30990000000000009E+03   1.30990000000000009E+03   1.30990000000000009E+03   1.30990000000000009E+03
             1.30990000000000009E+03   1.30990000000000009E+03   1.30990000000000009E+03   1.30990000000000009E+03   1.30990000000000009E+03
             1.30990000000000009E+03   1.30990000000000009E+03   1.30990000000000009E+03   1.30990000000000009E+03   1.30990000000000009E+03
             1.30990000000000009E+03   1.30990000000000009E+03   1.30990000000000009E+03   1.30990000000000009E+03   1.30990000000000009E+03
             1.30990000000000009E+03   1.30990000000000009E+03   1.30990000000000009E+03   1.30990000000000009E+03   1.30990000000000009E+03
 ETA=   73   1.32990000000000009E+03   1.32990000000000009E+03   1.32990000000000009E+03   1.32990000000000009E+03   1.32990000000000009E+03
             1.32990000000000009E+03   1.32990000000000009E+03   1.32990000000000009E+03   1.32990000000000009E+03   1.32990000000000009E+03
             1.32990000000000009E+03   1.32990000000000009E+03   1.32990000000000009E+03   1.32990000000000009E+03   1.32990000000000009E+03
             1.32990000000000009E+03   1.32990000000000009E+03   1.32990000000000009E+03   1.32990000000000009E+03   1.32990000000000009E+03
             1.32990000000000009E+03   1.32990000000000009E+03   1.32990000000000009E+03   1.32990000000000009E+03   1.32990000000000009E+03
             1.32990000000000009E+03   1.32990000000000009E+03   1.32990000000000009E+03   1.32990000000000009E+03   1.32990000000000009E+03
             1.32990000000000009E+03   1.32990000000000009E+03   1.32990000000000009E+03   1.32990000000000009E+03   1.32990000000000009E+03
             1.32990000000000009E+03   1.32990000000000009E+03   1.32990000000000009E+03   1.32990000000000009E+03   1.32990000000000009E+03
             1.32990000000000009E+03   1.32990000000000009E+03   1.32990000000000009E+03   1.32990000000000009E+03   1.32990000000000009E+03
             1.32990000000000009E+03   1.32990000000000009E+03   1.32990000000000009E+03   1.32990000000000009E+03   1.32990000000000009E+03
             1.32990000000000009E+03   1.32990000000000009E+03   1.32990000000000009E+03   1.32990000000000009E+03   1.32990000000000009E+03
             1.32990000000000009E+03   1.32990000000000009E+03   1.32990000000000009E+03   1.32990000000000009E+03   1.32990000000000009E+03
             1.32990000000000009E+03   1.32990000000000009E+03   1.32990000000000009E+03   1.32990000000000009E+03   1.32990000000000009E+03
             1.32990000000000009E+03   1.32990000000000009E+03   1.32990000000000009E+03   1.32990000000000009E+03   1.32990000000000009E+03
 ETA=   74   1.34990000000000009E+03   1.34990000000000009E+03   1.34990000000000009E+03   1.34990000000000009E+03   1.34990000000000009E+03
             1.34990000000000009E+03   1.34990000000000009E+03   1.34990000000000009E+03   1.34990000000000009E+03   1.34990000000000009E+03
             1.34990000000000009E+03   1.34990000000000009E+03   1.34990000000000009E+03   1.34990000000000009E+03   1.34990000000000009E+03
             1.34990000000000009E+03   1.34990000000000009E+03   1.34990000000000009E+03   1.34990000000000009E+03   1.34990000000000009E+03
             1.34990000000000009E+03   1.34990000000000009E+03   1.34990000000000009E+03   1.34990000000000009E+03   1.34990000000000009E+03
             1.34990000000000009E+03   1.34990000000000009E+03   1.34990000000000009E+03   1.34990000000000009E+03   1.34990000000000009E+03
             1.34990000000000009E+03   1.34990000000000009E+03   1.34990000000000009E+03   1.34990000000000009E+03   1.34990000000000009E+03
             1.34990000000000009E+03   1.34990000000000009E+03   1.34990000000000009E+03   1.34990000000000009E+03   1.34990000000000009E+03
             1.34990000000000009E+03   1.34990000000000009E+03   1.34990000000000009E+03   1.34990000000000009E+03   1.34990000000000009E+03
             1.34990000000000009E+03   1.34990000000000009E+03   1.34990000000000009E+03   1.34990000000000009E+03   1.34990000000000009E+03
             1.34990000000000009E+03   1.34990000000000009E+03   1.34990000000000009E+03   1.34990000000000009E+03   1.34990000000000009E+03
             1.34990000000000009E+03   1.34990000000000009E+03   1.34990000000000009E+03   1.34990000000000009E+03   1.34990000000000009E+03
             1.34990000000000009E+03   1.34990000000000009E+03   1.34990000000000009E+03   1.34990000000000009E+03   1.34990000000000009E+03
             1.34990000000000009E+03   1.34990000000000009E+03   1.34990000000000009E+03   1.34990000000000009E+03   1.34990000000000009E+03
 ETA=   75   1.36990000000000009E+03   1.36990000000000009E+03   1.36990000000000009E+03   1.36990000000000009E+03   1.36990000000000009E+03
             1.36990000000000009E+03   1.36990000000000009E+03   1.36990000000000009E+03   1.36990000000000009E+03   1.36990000000000009E+03
             1.36990000000000009E+03   1.36990000000000009E+03   1.36990000000000009E+03   1.36990000000000009E+03   1.36990000000000009E+03
             1.36990000000000009E+03   1.36990000000000009E+03   1.36990000000000009E+03   1.36990000000000009E+03   1.36990000000000009E+03
             1.36990000000000009E+03   1.36990000000000009E+03   1.36990000000000009E+03   1.36990000000000009E+03   1.36990000000000009E+03
             1.36990000000000009E+03   1.36990000000000009E+03   1.36990000000000009E+03   1.36990000000000009E+03   1.36990000000000009E+03
             1.36990000000000009E+03   1.36990000000000009E+03   1.36990000000000009E+03   1.36990000000000009E+03   1.36990000000000009E+03
             1.36990000000000009E+03   1.36990000000000009E+03   1.36990000000000009E+03   1.36990000000000009E+03   1.36990000000000009E+03
             1.36990000000000009E+03   1.36990000000000009E+03   1.36990000000000009E+03   1.36990000000000009E+03   1.36990000000000009E+03
             1.36990000000000009E+03   1.36990000000000009E+03   1.36990000000000009E+03   1.36990000000000009E+03   1.36990000000000009E+03
             1.36990000000000009E+03   1.36990000000000009E+03   1.36990000000000009E+03   1.36990000000000009E+03   1.36990000000000009E+03
             1.36990000000000009E+03   1.36990000000000009E+03   1.36990000000000009E+03   1.36990000000000009E+03   1.36990000000000009E+03
             1.36990000000000009E+03   1.36990000000000009E+03   1.36990000000000009E+03   1.36990000000000009E+03   1.36990000000000009E+03
             1.36990000000000009E+03   1.36990000000000009E+03   1.36990000000000009E+03   1.36990000000000009E+03   1.36990000000000009E+03
 ETA=   76   1.38990000000000009E+03   1.38990000000000009E+03   1.38990000000000009E+03   1.38990000000000009E+03   1.38990000000000009E+03
             1.38990000000000009E+03   1.38990000000000009E+03   1.38990000000000009E+03   1.38990000000000009E+03   1.38990000000000009E+03
             1.38990000000000009E+03   1.38990000000000009E+03   1.38990000000000009E+03   1.38990000000000009E+03   1.38990000000000009E+03
             1.38990000000000009E+03   1.38990000000000009E+03   1.38990000000000009E+03   1.38990000000000009E+03   1.38990000000000009E+03
             1.38990000000000009E+03   1.38990000000000009E+03   1.38990000000000009E+03   1.38990000000000009E+03   1.38990000000000009E+03
             1.38990000000000009E+03   1.38990000000000009E+03   1.38990000000000009E+03   1.38990000000000009E+03   1.38990000000000009E+03
             1.38990000000000009E+03   1.38990000000000009E+03   1.38990000000000009E+03   1.38990000000000009E+03   1.38990000000000009E+03
             1.38990000000000009E+03   1.38990000000000009E+03   1.38990000000000009E+03   1.38990000000000009E+03   1.38990000000000009E+03
             1.38990000000000009E+03   1.38990000000000009E+03   1.38990000000000009E+03   1.38990000000000009E+03   1.38990000000000009E+03
             1.38990000000000009E+03   1.38990000000000009E+03   1.38990000000000009E+03   1.38990000000000009E+03   1.38990000000000009E+03
             1.38990000000000009E+03   1.38990000000000009E+03   1.38990000000000009E+03   1.38990000000000009E+03   1.38990000000000009E+03
             1.38990000000000009E+03   1.38990000000000009E+03   1.38990000000000009E+03   1.38990000000000009E+03   1.38990000000000009E+03
             1.38990000000000009E+03   1.38990000000000009E+03   1.38990000000000009E+03   1.38990000000000009E+03   1.38990000000000009E+03
             1.38990000000000009E+03   1.38990000000000009E+03   1.38990000000000009E+03   1.38990000000000009E+03   1.38990000000000009E+03
 ETA=   77   1.40990000000000009E+03   1.40990000000000009E+03   1.40990000000000009E+03   1.40990000000000009E+03   1.40990000000000009E+03
             1.40990000000000009E+03   1.40990000000000009E+03   1.40990000000000009E+03   1.40990000000000009E+03   1.40990000000000009E+03
             1.40990000000000009E+03   1.40990000000000009E+03   1.40990000000000009E+03   1.40990000000000009E+03   1.40990000000000009E+03
             1.40990000000000009E+03   1.40990000000000009E+03   1.40990000000000009E+03   1.40990000000000009E+03   1.40990000000000009E+03
             1.40990000000000009E+03   1.40990000000000009E+03   1.40990000000000009E+03   1.40990000000000009E+03   1.40990000000000009E+03
             1.40990000000000009E+03   1.40990000000000009E+03   1.40990000000000009E+03   1.40990000000000009E+03   1.40990000000000009E+03
             1.40990000000000009E+03   1.40990000000000009E+03   1.40990000000000009E+03   1.40990000000000009E+03   1.40990000000000009E+03
             1.40990000000000009E+03   1.40990000000000009E+03   1.40990000000000009E+03   1.40990000000000009E+03   1.40990000000000009E+03
             1.40990000000000009E+03   1.40990000000000009E+03   1.40990000000000009E+03   1.40990000000000009E+03   1.40990000000000009E+03
             1.40990000000000009E+03   1.40990000000000009E+03   1.40990000000000009E+03   1.40990000000000009E+03   1.40990000000000009E+03
             1.40990000000000009E+03   1.40990000000000009E+03   1.40990000000000009E+03   1.40990000000000009E+03   1.40990000000000009E+03
             1.40990000000000009E+03   1.40990000000000009E+03   1.40990000000000009E+03   1.40990000000000009E+03   1.40990000000000009E+03
             1.40990000000000009E+03   1.40990000000000009E+03   1.40990000000000009E+03   1.40990000000000009E+03   1.40990000000000009E+03
             1.40990000000000009E+03   1.40990000000000009E+03   1.40990000000000009E+03   1.40990000000000009E+03   1.40990000000000009E+03
 ETA=   78   1.42990000000000009E+03   1.42990000000000009E+03   1.42990000000000009E+03   1.42990000000000009E+03   1.42990000000000009E+03
             1.42990000000000009E+03   1.42990000000000009E+03   1.42990000000000009E+03   1.42990000000000009E+03   1.42990000000000009E+03
             1.42990000000000009E+03   1.42990000000000009E+03   1.42990000000000009E+03   1.42990000000000009E+03   1.42990000000000009E+03
             1.42990000000000009E+03   1.42990000000000009E+03   1.42990000000000009E+03   1.42990000000000009E+03   1.42990000000000009E+03
             1.42990000000000009E+03   1.42990000000000009E+03   1.42990000000000009E+03   1.42990000000000009E+03   1.42990000000000009E+03
             1.42990000000000009E+03   1.42990000000000009E+03   1.42990000000000009E+03   1.42990000000000009E+03   1.42990000000000009E+03
             1.42990000000000009E+03   1.42990000000000009E+03   1.42990000000000009E+03   1.42990000000000009E+03   1.42990000000000009E+03
             1.42990000000000009E+03   1.42990000000000009E+03   1.42990000000000009E+03   1.42990000000000009E+03   1.42990000000000009E+03
             1.42990000000000009E+03   1.42990000000000009E+03   1.42990000000000009E+03   1.42990000000000009E+03   1.42990000000000009E+03
             1.42990000000000009E+03   1.42990000000000009E+03   1.42990000000000009E+03   1.42990000000000009E+03   1.42990000000000009E+03
             1.42990000000000009E+03   1.42990000000000009E+03   1.42990000000000009E+03   1.42990000000000009E+03   1.42990000000000009E+03
             1.42990000000000009E+03   1.42990000000000009E+03   1.42990000000000009E+03   1.42990000000000009E+03   1.42990000000000009E+03
             1.42990000000000009E+03   1.42990000000000009E+03   1.42990000000000009E+03   1.42990000000000009E+03   1.42990000000000009E+03
             1.42990000000000009E+03   1.42990000000000009E+03   1.42990000000000009E+03   1.42990000000000009E+03   1.42990000000000009E+03
 ETA=   79   1.44990000000000009E+03   1.44990000000000009E+03   1.44990000000000009E+03   1.44990000000000009E+03   1.44990000000000009E+03
             1.44990000000000009E+03   1.44990000000000009E+03   1.44990000000000009E+03   1.44990000000000009E+03   1.44990000000000009E+03
             1.44990000000000009E+03   1.44990000000000009E+03   1.44990000000000009E+03   1.44990000000000009E+03   1.44990000000000009E+03
             1.44990000000000009E+03   1.44990000000000009E+03   1.44990000000000009E+03   1.44990000000000009E+03   1.44990000000000009E+03
             1.44990000000000009E+03   1.44990000000000009E+03   1.44990000000000009E+03   1.44990000000000009E+03   1.44990000000000009E+03
             1.44990000000000009E+03   1.44990000000000009E+03   1.44990000000000009E+03   1.44990000000000009E+03   1.44990000000000009E+03
             1.44990000000000009E+03   1.44990000000000009E+03   1.44990000000000009E+03   1.44990000000000009E+03   1.44990000000000009E+03
             1.44990000000000009E+03   1.44990000000000009E+03   1.44990000000000009E+03   1.44990000000000009E+03   1.44990000000000009E+03
             1.44990000000000009E+03   1.44990000000000009E+03   1.44990000000000009E+03   1.44990000000000009E+03   1.44990000000000009E+03
             1.44990000000000009E+03   1.44990000000000009E+03   1.44990000000000009E+03   1.44990000000000009E+03   1.44990000000000009E+03
             1.44990000000000009E+03   1.44990000000000009E+03   1.44990000000000009E+03   1.44990000000000009E+03   1.44990000000000009E+03
             1.44990000000000009E+03   1.44990000000000009E+03   1.44990000000000009E+03   1.44990000000000009E+03   1.44990000000000009E+03
             1.44990000000000009E+03   1.44990000000000009E+03   1.44990000000000009E+03   1.44990000000000009E+03   1.44990000000000009E+03
             1.44990000000000009E+03   1.44990000000000009E+03   1.44990000000000009E+03   1.44990000000000009E+03   1.44990000000000009E+03
 ETA=   80   1.46990000000000009E+03   1.46990000000000009E+03   1.46990000000000009E+03   1.46990000000000009E+03   1.46990000000000009E+03
             1.46990000000000009E+03   1.46990000000000009E+03   1.46990000000000009E+03   1.46990000000000009E+03   1.46990000000000009E+03
             1.46990000000000009E+03   1.46990000000000009E+03   1.46990000000000009E+03   1.46990000000000009E+03   1.46990000000000009E+03
             1.46990000000000009E+03   1.46990000000000009E+03   1.46990000000000009E+03   1.46990000000000009E+03   1.46990000000000009E+03
             1.46990000000000009E+03   1.46990000000000009E+03   1.46990000000000009E+03   1.46990000000000009E+03   1.46990000000000009E+03
             1.46990000000000009E+03   1.46990000000000009E+03   1.46990000000000009E+03   1.46990000000000009E+03   1.46990000000000009E+03
             1.46990000000000009E+03   1.46990000000000009E+03   1.46990000000000009E+03   1.46990000000000009E+03   1.46990000000000009E+03
             1.46990000000000009E+03   1.46990000000000009E+03   1.46990000000000009E+03   1.46990000000000009E+03   1.46990000000000009E+03
             1.46990000000000009E+03   1.46990000000000009E+03   1.46990000000000009E+03   1.46990000000000009E+03   1.46990000000000009E+03
             1.46990000000000009E+03   1.46990000000000009E+03   1.46990000000000009E+03   1.46990000000000009E+03   1.46990000000000009E+03
             1.46990000000000009E+03   1.46990000000000009E+03   1.46990000000000009E+03   1.46990000000000009E+03   1.46990000000000009E+03
             1.46990000000000009E+03   1.46990000000000009E+03   1.46990000000000009E+03   1.46990000000000009E+03   1.46990000000000009E+03
             1.46990000000000009E+03   1.46990000000000009E+03   1.46990000000000009E+03   1.46990000000000009E+03   1.46990000000000009E+03
             1.46990000000000009E+03   1.46990000000000009E+03   1.46990000000000009E+03   1.46990000000000009E+03   1.46990000000000009E+03
 ETA=   81   1.48990000000000009E+03   1.48990000000000009E+03   1.48990000000000009E+03   1.48990000000000009E+03   1.48990000000000009E+03
             1.48990000000000009E+03   1.48990000000000009E+03   1.48990000000000009E+03   1.48990000000000009E+03   1.48990000000000009E+03
             1.48990000000000009E+03   1.48990000000000009E+03   1.48990000000000009E+03   1.48990000000000009E+03   1.48990000000000009E+03
             1.48990000000000009E+03   1.48990000000000009E+03   1.48990000000000009E+03   1.48990000000000009E+03   1.48990000000000009E+03
             1.48990000000000009E+03   1.48990000000000009E+03   1.48990000000000009E+03   1.48990000000000009E+03   1.48990000000000009E+03
             1.48990000000000009E+03   1.48990000000000009E+03   1.48990000000000009E+03   1.48990000000000009E+03   1.48990000000000009E+03
             1.48990000000000009E+03   1.48990000000000009E+03   1.48990000000000009E+03   1.48990000000000009E+03   1.48990000000000009E+03
             1.48990000000000009E+03   1.48990000000000009E+03   1.48990000000000009E+03   1.48990000000000009E+03   1.48990000000000009E+03
             1.48990000000000009E+03   1.48990000000000009E+03   1.48990000000000009E+03   1.48990000000000009E+03   1.48990000000000009E+03
             1.48990000000000009E+03   1.48990000000000009E+03   1.48990000000000009E+03   1.48990000000000009E+03   1.48990000000000009E+03
             1.48990000000000009E+03   1.48990000000000009E+03   1.48990000000000009E+03   1.48990000000000009E+03   1.48990000000000009E+03
             1.48990000000000009E+03   1.48990000000000009E+03   1.48990000000000009E+03   1.48990000000000009E+03   1.48990000000000009E+03
             1.48990000000000009E+03   1.48990000000000009E+03   1.48990000000000009E+03   1.48990000000000009E+03   1.48990000000000009E+03
             1.48990000000000009E+03   1.48990000000000009E+03   1.48990000000000009E+03   1.48990000000000009E+03   1.48990000000000009E+03
