* Deltares, D-Flow FM Version 1.2.59.64502M, Aug 02 2019, 10:44:19
* Source: https://svn.oss.deltares.nl/repos/delft3d/trunk/
* File creation date: 15:30:42, 07-08-2019
** INFO   : Command: "d:\Software\DFlowFM_Interactor\current\"\dflowfm.exe   --display:opengl=1 Boundary.mdu
** INFO   : Opened file : unstruc.hlp
** INFO   : Closed file : unstruc.hlp
** INFO   : Opened file : ISOCOLOUR.hls
** INFO   : Using Local FileISOCOLOUR.hls
** INFO   : Closed file : ISOCOLOUR.hls
** INFO   : Opened file : ISOCOLOUR.hls
** INFO   : Using Local FileISOCOLOUR.hls
** INFO   : Closed file : ISOCOLOUR.hls
** INFO   :  MAXIMUM NUMBER OF LINKS         :            2
** INFO   :  MAXIMUM NUMBER OF NODES         :            0
** INFO   :  RESOLUTION GRAPHICS SCREEN      :         1540         845
** INFO   :  RESOLUTION TEXT     SCREEN      :          192          56
** INFO   :  NUMBER OF COLOURS AVAILABLE     :          256
** DEBUG  :            0  0.1000020     NOD(KMAX)
** DEBUG  :            6  0.7000140     XK (KMAX), YK (KMAX), ZK (KMAX), KC (KMAX), NMK (KMAX), RNOD(KMAX)
