1

                    Execution started at 20201013.122808



                    ---------------------------------------
                                     SWAN
                    SIMULATION OF WAVES IN NEAR SHORE AREAS
                    DELTARES VERSION NUMBER 41.20A.7
                    ---------------------------------------



  $***************************** HEADING *********************************

  $

  PROJECT  '                '  '    '

      '                                                                        '

      '                                                                        '

      '                                                                        '

  $

  $***************************** MODEL INPUT *****************************

  $

  SET   LEVEL =   0.00  NOR =  90.00    DEPMIN =   0.05 _
         MAXMES = 1000   MAXERR = 2 _
        GRAV =    9.81  RHO =  1025.00  INRHOG =      1 _
        NAUT

  $

  MODE NONST

  CGRID CURV   65   74 EXCEPT   0.00000000000000000E+00   0.00000000000000000E+00   _
        CIR                         90       0.08       1.00   24
 Resolution in sigma-space: df/f =  0.1110

  $

  READ COOR 1. 'TMP_grid2swan01' _
   4   0   1 FREE
 **  Heading lines  **
 -> x-coordinates
 **  Heading lines  **
 -> y-coordinates

  $

  INPGRID _
  BOTTOM CURV 0. 0.   65   74

  READINP BOTTOM 1.0   'BOTNOW' 4 0 FREE

  $

  $

  $

  $

  $

  $

  BOUN SHAPE JONSWAP   3.30 PEAK DSPR POWER

  BOUN SEGM XY      700.0000000     1840.0000000      700.0000000      360.0000000  &
                      CON  PAR     1.50    5.50  270.00    4.00

  BOUN SHAPE JONSWAP   3.30 PEAK DSPR POWER

  BOUN SEGM XY     1350.0000000     1840.0000000      700.0000000     1840.0000000  &
                      CON  PAR     1.50    5.50  270.00    4.00

  BOUN SHAPE JONSWAP   3.30 PEAK DSPR POWER

  BOUN SEGM XY      700.0000000      360.0000000     1350.0000000      360.0000000  &
                      CON  PAR     1.50    5.50  270.00    4.00

  $

  GEN3

  BREAK CON       1.00    0.73

  FRIC JON       0.0380

  OFF WINDG

  OFF QUAD

  WCAP KOMEN delta=0

  LIM  10 1

  NUM DIR cdd=   0.50 SIGIM css=   0.50

  $

  NUM ACCUR        0.010    0.010    0.010   99.000   15

  OBST DAM  10.00   2.60   0.15                            LIN _
                0.12000000000000000E+04      0.90000000000000000E+03     _
                0.12000000000000000E+04      0.12000000000000000E+04

  $

  $***************************** OUTPUT REQUEST **************************

  $

 OUTPUT OPTIONS SPEC ndec=8

  QUANTITY HSIGN   excv=-999.0

  QUANTITY DIR     excv=-999.0

  QUANTITY TM01    excv=-999.0

  QUANTITY DEPTH   excv=-999.0

  QUANTITY VELOC   excv=-999.0

  QUANTITY TRANSP  excv=-999.0

  QUANTITY DSPR    excv=-999.0

  QUANTITY DISSIP  excv=-999.0

  QUANTITY LEAK    excv=-999.0

  QUANTITY QB      excv=-999.0

  QUANTITY XP      excv=-999.0

  QUANTITY YP      excv=-999.0

  QUANTITY DIST    excv=-999.0

  QUANTITY UBOT    excv=-999.0

  QUANTITY STEEPW  excv=-999.0

  QUANTITY WLENGTH excv=-999.0

  QUANTITY FORCES  excv=-999.0

  QUANTITY RTP     excv=-999.0

  QUANTITY PDIR    excv=-999.0

  QUANTITY WIND    excv=-999.0

  QUANTITY TPS     excv=-999.0

  QUANTITY TM02    excv=-999.0

  QUANTITY TMM10   excv=-999.0

  QUANTITY DHSIGN  excv=-999.0

  QUANTITY DRTM01  excv=-999.0

  QUANTITY SETUP   excv=-999.0

  QUANTITY DISSURF excv=-999.0

  QUANTITY DISWCAP excv=-999.0

  QUANTITY DISBOT  excv=-999.0

  $

  TABLE 'COMPGRID' NOHEAD 'SWANOUT1'  _
   HSIGN    DIR      TM01     DEPTH    VELOC    TRANSP _
   DSPR     DISSIP   LEAK     QB       XP       YP     _
   DIST     UBOT     STEEPW   WLENGTH  FORCES   RTP    _
   PDIR     WIND

  $

  TABLE 'COMPGRID' NOHEAD 'SWANOUT2'  _
   TPS      TM02     TMM10    DHSIGN   DRTM01   SETUP  _
   DISSURF  DISWCAP  DISBOT

  $

  $

  POINTS 'Waves' _
  FILE 'Waves.loc'

  $

  TABLE 'Waves' HEAD 'Waves.tab' XP YP DEP HS DIR RTP TM01 _
                                      DSPR UBOT WIND VEL

  SPEC  'Waves' SPEC1D 'Waves.sp1'

  SPEC  'Waves' SPEC2D 'Waves.sp2'

  $

  $

  TEST  ITEST=   0  ITRACE=   0

  COMPUTE STAT   20000714.000000
 ** Warning          : Obstacle points moved
OBSTACLE POINTS (    1200.00,     900.00), and (    1200.00,    1200.00),moved to: (    1200.10,     900.00), and (    1200.10,    1
 ** Warning          : Limiter is de-activated in case of no quadruplets
 iteration    1; sweep 1
 iteration    1; sweep 2
 iteration    1; sweep 3
 iteration    1; sweep 4
 accuracy OK in   4.14 % of wet grid points ( 99.00 % required)

 iteration    2; sweep 1
 iteration    2; sweep 2
 iteration    2; sweep 3
 iteration    2; sweep 4
 accuracy OK in 100.00 % of wet grid points ( 99.00 % required)



  STOP
