  Using options from ini file : delwaq.ini
 Delft3D-WAQ version  4.5212 17-06-2011
 Only to be used by SOBEK licensee                          
 (c) Deltares
 Execution start: 2012/01/18 14:54:27 

 Parallel processing with   1 processor(s)

 total real      array space:       5991
 total integer   array space:       4711
 total character array space:       3605
 grand total in 4-byte words:      14307 =   0-GB   0-MB  57-KB 228-Byte.
1                    Water quality calculation Sobek-WQ      
                                                             

                                                             
                     T0: 2010.01.01 00:00:00  (scu=       1s)

                     Initialisation from system file completed.

 No process decomposition active
 partit: noseg,nolay=          20           1 , nseghr=          20
 partit: npart=  1, assigning all segments to part "npart", none to other parts
 
 CONSTANT ON UNIT:        22, READING: delwaq-dispersi.wrk                                                                                                                                                                                                                                            
 SIMULATION TIME :    0D  0H  0M  0S ! 
 TIME IN FILE    :    0D  0H  0M  0S ! 
 CONSTANT ON UNIT:        26, READING: ..\WORK\Length.dat                                                                                                                                                                                                                                             
 SIMULATION TIME :    0D  0H  0M  0S ! 
 TIME IN FILE    :    0D  0H  0M  0S ! 
  Closure error correction disabled
 
 Initialising numerical options for method 15...18
 
 Preconditioner switch not found, using default
 switch = 3, corrections based on lower and upper 
 
 Maximum number of iterations not found, using default
 Maximum number of iterations set to :   100
 Maximum number of vectors is:    22
 
 Relative tolerance not found, using default
 Relative tolerance set to :0.100E-06
 
 Scaling switch not found, using default
 switch = 1, scaling is switched on
 
 Iteration report switch found in input
 switch = 0, iteration report is switched off
 
 Extra functionality DLWQTR
 End extra functionality DLWQTR
1
                                             Water quality calculation Sobek-WQ      
                                                                                     
                                                                              mass/m2
                                             T0: 2010.01.01 00:00:00  (scu=       1s)
   0.00% Completed


 DUMP OF INTERMEDIATE RESULTS IN SELECTED SEGMENTS
  TIME =   0D  0H  0M  0S .
 
 TOTAL MASS IN SYSTEM 1.8999E+04 0.0000E+00 1.8999E+04 1.0449E+05 1.8999E+04 0.0000E+00
 CHANGES BY PROCESSES 0.0000E+00 0.0000E+00 0.0000E+00 0.0000E+00 0.0000E+00 0.0000E+00
 CHANGES BY LOADS     0.0000E+00 0.0000E+00 0.0000E+00 0.0000E+00 0.0000E+00 0.0000E+00
 BOUNDARY INFLOWS     0.0000E+00 0.0000E+00 0.0000E+00 0.0000E+00 0.0000E+00 0.0000E+00
 BOUNDARY OUTFLOWS    0.0000E+00 0.0000E+00 0.0000E+00 0.0000E+00 0.0000E+00 0.0000E+00
                      NH4        CBOD5      CBOD5_2    OXY        Continuity SOD        
                                                                                        
 CONCENTRATION                           
 Start                1.0000E+00 0.0000E+00 1.0000E+00 5.5000E+00 1.0000E+00 0.0000E+00
 Upstream pipe        1.0000E+00 0.0000E+00 1.0000E+00 5.5000E+00 1.0000E+00 0.0000E+00
 Near pipe            1.0000E+00 0.0000E+00 1.0000E+00 5.5000E+00 1.0000E+00 0.0000E+00
 Far field            1.0000E+00 0.0000E+00 1.0000E+00 5.5000E+00 1.0000E+00 0.0000E+00
 SWT_Normal           1.0000E+00 0.0000E+00 1.0000E+00 5.5000E+00 1.0000E+00 0.0000E+00
 MASS                                    
 Start                9.9992E+02 0.0000E+00 9.9992E+02 5.4996E+03 9.9992E+02 0.0000E+00
 Upstream pipe        9.9992E+02 0.0000E+00 9.9992E+02 5.4996E+03 9.9992E+02 0.0000E+00
 Near pipe            9.9992E+02 0.0000E+00 9.9992E+02 5.4996E+03 9.9992E+02 0.0000E+00
 Far field            9.9992E+02 0.0000E+00 9.9992E+02 5.4996E+03 9.9992E+02 0.0000E+00
 SWT_Normal           1.8999E+04 0.0000E+00 1.8999E+04 1.0449E+05 1.8999E+04 0.0000E+00
 PROCESSES                               
 Start                0.0000E+00 0.0000E+00 0.0000E+00 0.0000E+00 0.0000E+00 0.0000E+00
 Upstream pipe        0.0000E+00 0.0000E+00 0.0000E+00 0.0000E+00 0.0000E+00 0.0000E+00
 Near pipe            0.0000E+00 0.0000E+00 0.0000E+00 0.0000E+00 0.0000E+00 0.0000E+00
 Far field            0.0000E+00 0.0000E+00 0.0000E+00 0.0000E+00 0.0000E+00 0.0000E+00
 SWT_Normal           0.0000E+00 0.0000E+00 0.0000E+00 0.0000E+00 0.0000E+00 0.0000E+00
 LOADS ( IN )                            
 Start                0.0000E+00 0.0000E+00 0.0000E+00 0.0000E+00 0.0000E+00 0.0000E+00
 Upstream pipe        0.0000E+00 0.0000E+00 0.0000E+00 0.0000E+00 0.0000E+00 0.0000E+00
 Near pipe            0.0000E+00 0.0000E+00 0.0000E+00 0.0000E+00 0.0000E+00 0.0000E+00
 Far field            0.0000E+00 0.0000E+00 0.0000E+00 0.0000E+00 0.0000E+00 0.0000E+00
 SWT_Normal           0.0000E+00 0.0000E+00 0.0000E+00 0.0000E+00 0.0000E+00 0.0000E+00
 LOADS ( OUT )                           
 Start                0.0000E+00 0.0000E+00 0.0000E+00 0.0000E+00 0.0000E+00 0.0000E+00
 Upstream pipe        0.0000E+00 0.0000E+00 0.0000E+00 0.0000E+00 0.0000E+00 0.0000E+00
 Near pipe            0.0000E+00 0.0000E+00 0.0000E+00 0.0000E+00 0.0000E+00 0.0000E+00
 Far field            0.0000E+00 0.0000E+00 0.0000E+00 0.0000E+00 0.0000E+00 0.0000E+00
 SWT_Normal           0.0000E+00 0.0000E+00 0.0000E+00 0.0000E+00 0.0000E+00 0.0000E+00
 TRANSPORT ( IN )                        
 Start                0.0000E+00 0.0000E+00 0.0000E+00 0.0000E+00 0.0000E+00 0.0000E+00
 Upstream pipe        0.0000E+00 0.0000E+00 0.0000E+00 0.0000E+00 0.0000E+00 0.0000E+00
 Near pipe            0.0000E+00 0.0000E+00 0.0000E+00 0.0000E+00 0.0000E+00 0.0000E+00
 Far field            0.0000E+00 0.0000E+00 0.0000E+00 0.0000E+00 0.0000E+00 0.0000E+00
 SWT_Normal           0.0000E+00 0.0000E+00 0.0000E+00 0.0000E+00 0.0000E+00 0.0000E+00
 TRANSPORT ( OUT )                       
 Start                0.0000E+00 0.0000E+00 0.0000E+00 0.0000E+00 0.0000E+00 0.0000E+00
 Upstream pipe        0.0000E+00 0.0000E+00 0.0000E+00 0.0000E+00 0.0000E+00 0.0000E+00
 Near pipe            0.0000E+00 0.0000E+00 0.0000E+00 0.0000E+00 0.0000E+00 0.0000E+00
 Far field            0.0000E+00 0.0000E+00 0.0000E+00 0.0000E+00 0.0000E+00 0.0000E+00
 SWT_Normal           0.0000E+00 0.0000E+00 0.0000E+00 0.0000E+00 0.0000E+00 0.0000E+00
 
   0.69% Completed


 DUMP OF INTERMEDIATE RESULTS IN SELECTED SEGMENTS
  TIME =   0D  1H  0M  0S .
 
 TOTAL MASS IN SYSTEM 1.8929E+04 0.0000E+00 1.8818E+04 1.0543E+05 1.8999E+04 0.0000E+00
 CHANGES BY PROCESSES-6.9978E+01 0.0000E+00-1.8118E+02 9.3444E+02 0.0000E+00 0.0000E+00
 CHANGES BY LOADS     0.0000E+00 0.0000E+00 0.0000E+00 0.0000E+00 0.0000E+00 0.0000E+00
 BOUNDARY INFLOWS     3.6000E+01 0.0000E+00 3.6000E+01 1.9800E+02 3.6000E+01 0.0000E+00
 BOUNDARY OUTFLOWS    3.5933E+01 0.0000E+00 3.5807E+01 1.9913E+02 3.6012E+01 0.0000E+00
                      NH4        CBOD5      CBOD5_2    OXY        Continuity SOD        
                                                                                        
 CONCENTRATION                           
 Start                9.9632E-01 0.0000E+00 9.9047E-01 5.5491E+00 1.0000E+00 0.0000E+00
 Upstream pipe        9.9632E-01 0.0000E+00 9.9046E-01 5.5492E+00 1.0000E+00 0.0000E+00
 Near pipe            9.9632E-01 0.0000E+00 9.9046E-01 5.5492E+00 1.0000E+00 0.0000E+00
 Far field            9.9632E-01 0.0000E+00 9.9046E-01 5.5492E+00 1.0000E+00 0.0000E+00
 SWT_Normal           9.9632E-01 0.0000E+00 9.9047E-01 5.5491E+00 1.0000E+00 0.0000E+00
 MASS                                    
 Start                9.9624E+02 0.0000E+00 9.9040E+02 5.5487E+03 9.9992E+02 0.0000E+00
 Upstream pipe        9.9624E+02 0.0000E+00 9.9039E+02 5.5488E+03 9.9992E+02 0.0000E+00
 Near pipe            9.9624E+02 0.0000E+00 9.9039E+02 5.5488E+03 9.9992E+02 0.0000E+00
 Far field            9.9624E+02 0.0000E+00 9.9039E+02 5.5488E+03 9.9992E+02 0.0000E+00
 SWT_Normal           1.8929E+04 0.0000E+00 1.8818E+04 1.0543E+05 1.8999E+04 0.0000E+00
 PROCESSES                               
 Start               -3.6831E+00 0.0000E+00-9.5357E+00 4.9180E+01 0.0000E+00 0.0000E+00
 Upstream pipe       -3.6831E+00 0.0000E+00-9.5357E+00 4.9180E+01 0.0000E+00 0.0000E+00
 Near pipe           -3.6831E+00 0.0000E+00-9.5356E+00 4.9180E+01 0.0000E+00 0.0000E+00
 Far field           -3.6830E+00 0.0000E+00-9.5355E+00 4.9181E+01 0.0000E+00 0.0000E+00
 SWT_Normal          -6.9978E+01 0.0000E+00-1.8118E+02 9.3444E+02 0.0000E+00 0.0000E+00
 LOADS ( IN )                            
 Start                0.0000E+00 0.0000E+00 0.0000E+00 0.0000E+00 0.0000E+00 0.0000E+00
 Upstream pipe        0.0000E+00 0.0000E+00 0.0000E+00 0.0000E+00 0.0000E+00 0.0000E+00
 Near pipe            0.0000E+00 0.0000E+00 0.0000E+00 0.0000E+00 0.0000E+00 0.0000E+00
 Far field            0.0000E+00 0.0000E+00 0.0000E+00 0.0000E+00 0.0000E+00 0.0000E+00
 SWT_Normal           0.0000E+00 0.0000E+00 0.0000E+00 0.0000E+00 0.0000E+00 0.0000E+00
 LOADS ( OUT )                           
 Start                0.0000E+00 0.0000E+00 0.0000E+00 0.0000E+00 0.0000E+00 0.0000E+00
 Upstream pipe        0.0000E+00 0.0000E+00 0.0000E+00 0.0000E+00 0.0000E+00 0.0000E+00
 Near pipe            0.0000E+00 0.0000E+00 0.0000E+00 0.0000E+00 0.0000E+00 0.0000E+00
 Far field            0.0000E+00 0.0000E+00 0.0000E+00 0.0000E+00 0.0000E+00 0.0000E+00
 SWT_Normal           0.0000E+00 0.0000E+00 0.0000E+00 0.0000E+00 0.0000E+00 0.0000E+00
 TRANSPORT ( IN )                        
 Start                3.5925E+01 0.0000E+00 3.5806E+01 1.9901E+02 3.6000E+01 0.0000E+00
 Upstream pipe        3.5924E+01 0.0000E+00 3.5800E+01 1.9905E+02 3.6002E+01 0.0000E+00
 Near pipe            3.5926E+01 0.0000E+00 3.5801E+01 1.9907E+02 3.6004E+01 0.0000E+00
 Far field            3.5933E+01 0.0000E+00 3.5807E+01 1.9913E+02 3.6012E+01 0.0000E+00
 SWT_Normal           3.6000E+01 0.0000E+00 3.6000E+01 1.9800E+02 3.6000E+01 0.0000E+00
 TRANSPORT ( OUT )                       
 Start                3.5924E+01 0.0000E+00 3.5800E+01 1.9905E+02 3.6001E+01 0.0000E+00
 Upstream pipe        3.5925E+01 0.0000E+00 3.5801E+01 1.9906E+02 3.6003E+01 0.0000E+00
 Near pipe            3.5926E+01 0.0000E+00 3.5802E+01 1.9908E+02 3.6005E+01 0.0000E+00
 Far field            3.5933E+01 0.0000E+00 3.5807E+01 1.9913E+02 3.6012E+01 0.0000E+00
 SWT_Normal           3.5933E+01 0.0000E+00 3.5807E+01 1.9913E+02 3.6012E+01 0.0000E+00
 
   1.39% Completed


 DUMP OF INTERMEDIATE RESULTS IN SELECTED SEGMENTS
  TIME =   0D  2H  0M  0S .
 
 TOTAL MASS IN SYSTEM 1.8859E+04 0.0000E+00 1.8639E+04 1.0633E+05 1.8999E+04 0.0000E+00
 CHANGES BY PROCESSES-6.9719E+01 0.0000E+00-1.7945E+02 9.0317E+02 0.0000E+00 0.0000E+00
 CHANGES BY LOADS     0.0000E+00 0.0000E+00 0.0000E+00 0.0000E+00 0.0000E+00 0.0000E+00
 BOUNDARY INFLOWS     3.6000E+01 0.0000E+00 3.6000E+01 1.9800E+02 3.6000E+01 0.0000E+00
 BOUNDARY OUTFLOWS    3.5768E+01 0.0000E+00 3.5436E+01 2.0065E+02 3.5978E+01 0.0000E+00
                      NH4        CBOD5      CBOD5_2    OXY        Continuity SOD        
                                                                                        
 CONCENTRATION                           
 Start                9.9266E-01 0.0000E+00 9.8106E-01 5.5965E+00 1.0000E+00 0.0000E+00
 Upstream pipe        9.9265E-01 0.0000E+00 9.8102E-01 5.5967E+00 1.0000E+00 0.0000E+00
 Near pipe            9.9265E-01 0.0000E+00 9.8102E-01 5.5967E+00 1.0000E+00 0.0000E+00
 Far field            9.9265E-01 0.0000E+00 9.8102E-01 5.5967E+00 1.0000E+00 0.0000E+00
 SWT_Normal           9.9266E-01 0.0000E+00 9.8106E-01 5.5965E+00 1.0000E+00 0.0000E+00
 MASS                                    
 Start                9.9259E+02 0.0000E+00 9.8098E+02 5.5961E+03 9.9993E+02 0.0000E+00
 Upstream pipe        9.9257E+02 0.0000E+00 9.8095E+02 5.5963E+03 9.9993E+02 0.0000E+00
 Near pipe            9.9257E+02 0.0000E+00 9.8095E+02 5.5963E+03 9.9993E+02 0.0000E+00
 Far field            9.9257E+02 0.0000E+00 9.8095E+02 5.5963E+03 9.9992E+02 0.0000E+00
 SWT_Normal           1.8859E+04 0.0000E+00 1.8639E+04 1.0633E+05 1.8999E+04 0.0000E+00
 PROCESSES                               
 Start               -3.6694E+00 0.0000E+00-9.4447E+00 4.7534E+01 0.0000E+00 0.0000E+00
 Upstream pipe       -3.6694E+00 0.0000E+00-9.4445E+00 4.7531E+01 0.0000E+00 0.0000E+00
 Near pipe           -3.6694E+00 0.0000E+00-9.4445E+00 4.7531E+01 0.0000E+00 0.0000E+00
 Far field           -3.6694E+00 0.0000E+00-9.4445E+00 4.7531E+01 0.0000E+00 0.0000E+00
 SWT_Normal          -6.9719E+01 0.0000E+00-1.7945E+02 9.0317E+02 0.0000E+00 0.0000E+00
 LOADS ( IN )                            
 Start                0.0000E+00 0.0000E+00 0.0000E+00 0.0000E+00 0.0000E+00 0.0000E+00
 Upstream pipe        0.0000E+00 0.0000E+00 0.0000E+00 0.0000E+00 0.0000E+00 0.0000E+00
 Near pipe            0.0000E+00 0.0000E+00 0.0000E+00 0.0000E+00 0.0000E+00 0.0000E+00
 Far field            0.0000E+00 0.0000E+00 0.0000E+00 0.0000E+00 0.0000E+00 0.0000E+00
 SWT_Normal           0.0000E+00 0.0000E+00 0.0000E+00 0.0000E+00 0.0000E+00 0.0000E+00
 LOADS ( OUT )                           
 Start                0.0000E+00 0.0000E+00 0.0000E+00 0.0000E+00 0.0000E+00 0.0000E+00
 Upstream pipe        0.0000E+00 0.0000E+00 0.0000E+00 0.0000E+00 0.0000E+00 0.0000E+00
 Near pipe            0.0000E+00 0.0000E+00 0.0000E+00 0.0000E+00 0.0000E+00 0.0000E+00
 Far field            0.0000E+00 0.0000E+00 0.0000E+00 0.0000E+00 0.0000E+00 0.0000E+00
 SWT_Normal           0.0000E+00 0.0000E+00 0.0000E+00 0.0000E+00 0.0000E+00 0.0000E+00
 TRANSPORT ( IN )                        
 Start                3.5802E+01 0.0000E+00 3.5491E+01 2.0060E+02 3.5999E+01 0.0000E+00
 Upstream pipe        3.5786E+01 0.0000E+00 3.5454E+01 2.0075E+02 3.5996E+01 0.0000E+00
 Near pipe            3.5783E+01 0.0000E+00 3.5450E+01 2.0073E+02 3.5992E+01 0.0000E+00
 Far field            3.5769E+01 0.0000E+00 3.5436E+01 2.0065E+02 3.5978E+01 0.0000E+00
 SWT_Normal           3.6000E+01 0.0000E+00 3.6000E+01 1.9800E+02 3.6000E+01 0.0000E+00
 TRANSPORT ( OUT )                       
 Start                3.5788E+01 0.0000E+00 3.5456E+01 2.0075E+02 3.5997E+01 0.0000E+00
 Upstream pipe        3.5784E+01 0.0000E+00 3.5452E+01 2.0074E+02 3.5994E+01 0.0000E+00
 Near pipe            3.5781E+01 0.0000E+00 3.5449E+01 2.0072E+02 3.5991E+01 0.0000E+00
 Far field            3.5768E+01 0.0000E+00 3.5436E+01 2.0065E+02 3.5978E+01 0.0000E+00
 SWT_Normal           3.5768E+01 0.0000E+00 3.5436E+01 2.0065E+02 3.5978E+01 0.0000E+00
 
1
                                             Water quality calculation Sobek-WQ      
                                                                                     
                                                                              mass/m2
                                             T0: 2010.01.01 00:00:00  (scu=       1s)
   2.08% Completed


 DUMP OF INTERMEDIATE RESULTS IN SELECTED SEGMENTS
  TIME =   0D  3H  0M  0S .
 
 TOTAL MASS IN SYSTEM 1.8790E+04 0.0000E+00 1.8462E+04 1.0719E+05 1.8999E+04 0.0000E+00
 CHANGES BY PROCESSES-6.9463E+01 0.0000E+00-1.7774E+02 8.7304E+02 0.0000E+00 0.0000E+00
 CHANGES BY LOADS     0.0000E+00 0.0000E+00 0.0000E+00 0.0000E+00 0.0000E+00 0.0000E+00
 BOUNDARY INFLOWS     3.6000E+01 0.0000E+00 3.6000E+01 1.9800E+02 3.6000E+01 0.0000E+00
 BOUNDARY OUTFLOWS    3.5657E+01 0.0000E+00 3.5119E+01 2.0245E+02 3.5999E+01 0.0000E+00
                      NH4        CBOD5      CBOD5_2    OXY        Continuity SOD        
                                                                                        
 CONCENTRATION                           
 Start                9.8904E-01 0.0000E+00 9.7178E-01 5.6421E+00 1.0000E+00 0.0000E+00
 Upstream pipe        9.8899E-01 0.0000E+00 9.7166E-01 5.6427E+00 1.0000E+00 0.0000E+00
 Near pipe            9.8899E-01 0.0000E+00 9.7166E-01 5.6427E+00 1.0000E+00 0.0000E+00
 Far field            9.8899E-01 0.0000E+00 9.7166E-01 5.6427E+00 1.0000E+00 0.0000E+00
 SWT_Normal           9.8902E-01 0.0000E+00 9.7175E-01 5.6422E+00 1.0000E+00 0.0000E+00
 MASS                                    
 Start                9.8896E+02 0.0000E+00 9.7171E+02 5.6417E+03 9.9993E+02 0.0000E+00
 Upstream pipe        9.8892E+02 0.0000E+00 9.7159E+02 5.6422E+03 9.9993E+02 0.0000E+00
 Near pipe            9.8892E+02 0.0000E+00 9.7159E+02 5.6422E+03 9.9993E+02 0.0000E+00
 Far field            9.8892E+02 0.0000E+00 9.7159E+02 5.6422E+03 9.9992E+02 0.0000E+00
 SWT_Normal           1.8790E+04 0.0000E+00 1.8462E+04 1.0719E+05 1.8999E+04 0.0000E+00
 PROCESSES                               
 Start               -3.6560E+00 0.0000E+00-9.3551E+00 4.5951E+01 0.0000E+00 0.0000E+00
 Upstream pipe       -3.6559E+00 0.0000E+00-9.3544E+00 4.5940E+01 0.0000E+00 0.0000E+00
 Near pipe           -3.6559E+00 0.0000E+00-9.3544E+00 4.5940E+01 0.0000E+00 0.0000E+00
 Far field           -3.6559E+00 0.0000E+00-9.3544E+00 4.5940E+01 0.0000E+00 0.0000E+00
 SWT_Normal          -6.9463E+01 0.0000E+00-1.7774E+02 8.7304E+02 0.0000E+00 0.0000E+00
 LOADS ( IN )                            
 Start                0.0000E+00 0.0000E+00 0.0000E+00 0.0000E+00 0.0000E+00 0.0000E+00
 Upstream pipe        0.0000E+00 0.0000E+00 0.0000E+00 0.0000E+00 0.0000E+00 0.0000E+00
 Near pipe            0.0000E+00 0.0000E+00 0.0000E+00 0.0000E+00 0.0000E+00 0.0000E+00
 Far field            0.0000E+00 0.0000E+00 0.0000E+00 0.0000E+00 0.0000E+00 0.0000E+00
 SWT_Normal           0.0000E+00 0.0000E+00 0.0000E+00 0.0000E+00 0.0000E+00 0.0000E+00
 LOADS ( OUT )                           
 Start                0.0000E+00 0.0000E+00 0.0000E+00 0.0000E+00 0.0000E+00 0.0000E+00
 Upstream pipe        0.0000E+00 0.0000E+00 0.0000E+00 0.0000E+00 0.0000E+00 0.0000E+00
 Near pipe            0.0000E+00 0.0000E+00 0.0000E+00 0.0000E+00 0.0000E+00 0.0000E+00
 Far field            0.0000E+00 0.0000E+00 0.0000E+00 0.0000E+00 0.0000E+00 0.0000E+00
 SWT_Normal           0.0000E+00 0.0000E+00 0.0000E+00 0.0000E+00 0.0000E+00 0.0000E+00
 TRANSPORT ( IN )                        
 Start                3.5690E+01 0.0000E+00 3.5202E+01 2.0204E+02 3.6000E+01 0.0000E+00
 Upstream pipe        3.5658E+01 0.0000E+00 3.5120E+01 2.0245E+02 3.6000E+01 0.0000E+00
 Near pipe            3.5658E+01 0.0000E+00 3.5120E+01 2.0245E+02 3.6000E+01 0.0000E+00
 Far field            3.5657E+01 0.0000E+00 3.5119E+01 2.0245E+02 3.5999E+01 0.0000E+00
 SWT_Normal           3.6000E+01 0.0000E+00 3.6000E+01 1.9800E+02 3.6000E+01 0.0000E+00
 TRANSPORT ( OUT )                       
 Start                3.5659E+01 0.0000E+00 3.5123E+01 2.0244E+02 3.6000E+01 0.0000E+00
 Upstream pipe        3.5658E+01 0.0000E+00 3.5120E+01 2.0245E+02 3.6000E+01 0.0000E+00
 Near pipe            3.5658E+01 0.0000E+00 3.5120E+01 2.0245E+02 3.6000E+01 0.0000E+00
 Far field            3.5657E+01 0.0000E+00 3.5119E+01 2.0245E+02 3.5999E+01 0.0000E+00
 SWT_Normal           3.5657E+01 0.0000E+00 3.5119E+01 2.0245E+02 3.5999E+01 0.0000E+00
 
   2.78% Completed


 DUMP OF INTERMEDIATE RESULTS IN SELECTED SEGMENTS
  TIME =   0D  4H  0M  0S .
 
 TOTAL MASS IN SYSTEM 1.8721E+04 0.0000E+00 1.8287E+04 1.0803E+05 1.8999E+04 0.0000E+00
 CHANGES BY PROCESSES-6.9209E+01 0.0000E+00-1.7606E+02 8.4404E+02 0.0000E+00 0.0000E+00
 CHANGES BY LOADS     0.0000E+00 0.0000E+00 0.0000E+00 0.0000E+00 0.0000E+00 0.0000E+00
 BOUNDARY INFLOWS     3.6000E+01 0.0000E+00 3.6000E+01 1.9800E+02 3.6000E+01 0.0000E+00
 BOUNDARY OUTFLOWS    3.5527E+01 0.0000E+00 3.4785E+01 2.0407E+02 3.6000E+01 0.0000E+00
                      NH4        CBOD5      CBOD5_2    OXY        Continuity SOD        
                                                                                        
 CONCENTRATION                           
 Start                9.8545E-01 0.0000E+00 9.6266E-01 5.6858E+00 1.0000E+00 0.0000E+00
 Upstream pipe        9.8535E-01 0.0000E+00 9.6240E-01 5.6871E+00 1.0000E+00 0.0000E+00
 Near pipe            9.8535E-01 0.0000E+00 9.6240E-01 5.6871E+00 1.0000E+00 0.0000E+00
 Far field            9.8535E-01 0.0000E+00 9.6240E-01 5.6871E+00 1.0000E+00 0.0000E+00
 SWT_Normal           9.8541E-01 0.0000E+00 9.6255E-01 5.6863E+00 1.0000E+00 0.0000E+00
 MASS                                    
 Start                9.8538E+02 0.0000E+00 9.6258E+02 5.6854E+03 9.9993E+02 0.0000E+00
 Upstream pipe        9.8528E+02 0.0000E+00 9.6233E+02 5.6866E+03 9.9993E+02 0.0000E+00
 Near pipe            9.8528E+02 0.0000E+00 9.6233E+02 5.6866E+03 9.9993E+02 0.0000E+00
 Far field            9.8527E+02 0.0000E+00 9.6233E+02 5.6866E+03 9.9992E+02 0.0000E+00
 SWT_Normal           1.8721E+04 0.0000E+00 1.8287E+04 1.0803E+05 1.8999E+04 0.0000E+00
 PROCESSES                               
 Start               -3.6427E+00 0.0000E+00-9.2669E+00 4.4433E+01 0.0000E+00 0.0000E+00
 Upstream pipe       -3.6424E+00 0.0000E+00-9.2652E+00 4.4405E+01 0.0000E+00 0.0000E+00
 Near pipe           -3.6424E+00 0.0000E+00-9.2652E+00 4.4405E+01 0.0000E+00 0.0000E+00
 Far field           -3.6424E+00 0.0000E+00-9.2652E+00 4.4405E+01 0.0000E+00 0.0000E+00
 SWT_Normal          -6.9209E+01 0.0000E+00-1.7606E+02 8.4404E+02 0.0000E+00 0.0000E+00
 LOADS ( IN )                            
 Start                0.0000E+00 0.0000E+00 0.0000E+00 0.0000E+00 0.0000E+00 0.0000E+00
 Upstream pipe        0.0000E+00 0.0000E+00 0.0000E+00 0.0000E+00 0.0000E+00 0.0000E+00
 Near pipe            0.0000E+00 0.0000E+00 0.0000E+00 0.0000E+00 0.0000E+00 0.0000E+00
 Far field            0.0000E+00 0.0000E+00 0.0000E+00 0.0000E+00 0.0000E+00 0.0000E+00
 SWT_Normal           0.0000E+00 0.0000E+00 0.0000E+00 0.0000E+00 0.0000E+00 0.0000E+00
 LOADS ( OUT )                           
 Start                0.0000E+00 0.0000E+00 0.0000E+00 0.0000E+00 0.0000E+00 0.0000E+00
 Upstream pipe        0.0000E+00 0.0000E+00 0.0000E+00 0.0000E+00 0.0000E+00 0.0000E+00
 Near pipe            0.0000E+00 0.0000E+00 0.0000E+00 0.0000E+00 0.0000E+00 0.0000E+00
 Far field            0.0000E+00 0.0000E+00 0.0000E+00 0.0000E+00 0.0000E+00 0.0000E+00
 SWT_Normal           0.0000E+00 0.0000E+00 0.0000E+00 0.0000E+00 0.0000E+00 0.0000E+00
 TRANSPORT ( IN )                        
 Start                3.5586E+01 0.0000E+00 3.4935E+01 2.0334E+02 3.6000E+01 0.0000E+00
 Upstream pipe        3.5527E+01 0.0000E+00 3.4785E+01 2.0407E+02 3.6000E+01 0.0000E+00
 Near pipe            3.5527E+01 0.0000E+00 3.4785E+01 2.0407E+02 3.6000E+01 0.0000E+00
 Far field            3.5527E+01 0.0000E+00 3.4785E+01 2.0407E+02 3.6000E+01 0.0000E+00
 SWT_Normal           3.6000E+01 0.0000E+00 3.6000E+01 1.9800E+02 3.6000E+01 0.0000E+00
 TRANSPORT ( OUT )                       
 Start                3.5530E+01 0.0000E+00 3.4792E+01 2.0404E+02 3.6000E+01 0.0000E+00
 Upstream pipe        3.5527E+01 0.0000E+00 3.4785E+01 2.0407E+02 3.6000E+01 0.0000E+00
 Near pipe            3.5527E+01 0.0000E+00 3.4785E+01 2.0407E+02 3.6000E+01 0.0000E+00
 Far field            3.5527E+01 0.0000E+00 3.4785E+01 2.0407E+02 3.6000E+01 0.0000E+00
 SWT_Normal           3.5527E+01 0.0000E+00 3.4785E+01 2.0407E+02 3.6000E+01 0.0000E+00
 
   3.47% Completed


 DUMP OF INTERMEDIATE RESULTS IN SELECTED SEGMENTS
  TIME =   0D  5H  0M  0S .
 
 TOTAL MASS IN SYSTEM 1.8653E+04 0.0000E+00 1.8114E+04 1.0884E+05 1.8999E+04 0.0000E+00
 CHANGES BY PROCESSES-6.8956E+01 0.0000E+00-1.7439E+02 8.1612E+02 0.0000E+00 0.0000E+00
 CHANGES BY LOADS     0.0000E+00 0.0000E+00 0.0000E+00 0.0000E+00 0.0000E+00 0.0000E+00
 BOUNDARY INFLOWS     3.6000E+01 0.0000E+00 3.6000E+01 1.9800E+02 3.6000E+01 0.0000E+00
 BOUNDARY OUTFLOWS    3.5396E+01 0.0000E+00 3.4453E+01 2.0564E+02 3.6000E+01 0.0000E+00
                      NH4        CBOD5      CBOD5_2    OXY        Continuity SOD        
                                                                                        
 CONCENTRATION                           
 Start                9.8191E-01 0.0000E+00 9.5370E-01 5.7277E+00 1.0000E+00 0.0000E+00
 Upstream pipe        9.8172E-01 0.0000E+00 9.5322E-01 5.7300E+00 1.0000E+00 0.0000E+00
 Near pipe            9.8172E-01 0.0000E+00 9.5322E-01 5.7300E+00 1.0000E+00 0.0000E+00
 Far field            9.8172E-01 0.0000E+00 9.5322E-01 5.7300E+00 1.0000E+00 0.0000E+00
 SWT_Normal           9.8181E-01 0.0000E+00 9.5345E-01 5.7289E+00 1.0000E+00 0.0000E+00
 MASS                                    
 Start                9.8183E+02 0.0000E+00 9.5363E+02 5.7273E+03 9.9993E+02 0.0000E+00
 Upstream pipe        9.8165E+02 0.0000E+00 9.5315E+02 5.7296E+03 9.9993E+02 0.0000E+00
 Near pipe            9.8165E+02 0.0000E+00 9.5315E+02 5.7296E+03 9.9993E+02 0.0000E+00
 Far field            9.8165E+02 0.0000E+00 9.5315E+02 5.7296E+03 9.9992E+02 0.0000E+00
 SWT_Normal           1.8653E+04 0.0000E+00 1.8114E+04 1.0884E+05 1.8999E+04 0.0000E+00
 PROCESSES                               
 Start               -3.6295E+00 0.0000E+00-9.1802E+00 4.2980E+01 0.0000E+00 0.0000E+00
 Upstream pipe       -3.6290E+00 0.0000E+00-9.1769E+00 4.2924E+01 0.0000E+00 0.0000E+00
 Near pipe           -3.6290E+00 0.0000E+00-9.1769E+00 4.2924E+01 0.0000E+00 0.0000E+00
 Far field           -3.6290E+00 0.0000E+00-9.1769E+00 4.2924E+01 0.0000E+00 0.0000E+00
 SWT_Normal          -6.8956E+01 0.0000E+00-1.7439E+02 8.1612E+02 0.0000E+00 0.0000E+00
 LOADS ( IN )                            
 Start                0.0000E+00 0.0000E+00 0.0000E+00 0.0000E+00 0.0000E+00 0.0000E+00
 Upstream pipe        0.0000E+00 0.0000E+00 0.0000E+00 0.0000E+00 0.0000E+00 0.0000E+00
 Near pipe            0.0000E+00 0.0000E+00 0.0000E+00 0.0000E+00 0.0000E+00 0.0000E+00
 Far field            0.0000E+00 0.0000E+00 0.0000E+00 0.0000E+00 0.0000E+00 0.0000E+00
 SWT_Normal           0.0000E+00 0.0000E+00 0.0000E+00 0.0000E+00 0.0000E+00 0.0000E+00
 LOADS ( OUT )                           
 Start                0.0000E+00 0.0000E+00 0.0000E+00 0.0000E+00 0.0000E+00 0.0000E+00
 Upstream pipe        0.0000E+00 0.0000E+00 0.0000E+00 0.0000E+00 0.0000E+00 0.0000E+00
 Near pipe            0.0000E+00 0.0000E+00 0.0000E+00 0.0000E+00 0.0000E+00 0.0000E+00
 Far field            0.0000E+00 0.0000E+00 0.0000E+00 0.0000E+00 0.0000E+00 0.0000E+00
 SWT_Normal           0.0000E+00 0.0000E+00 0.0000E+00 0.0000E+00 0.0000E+00 0.0000E+00
 TRANSPORT ( IN )                        
 Start                3.5488E+01 0.0000E+00 3.4688E+01 2.0450E+02 3.6000E+01 0.0000E+00
 Upstream pipe        3.5397E+01 0.0000E+00 3.4454E+01 2.0564E+02 3.6000E+01 0.0000E+00
 Near pipe            3.5396E+01 0.0000E+00 3.4453E+01 2.0564E+02 3.6000E+01 0.0000E+00
 Far field            3.5396E+01 0.0000E+00 3.4453E+01 2.0564E+02 3.6000E+01 0.0000E+00
 SWT_Normal           3.6000E+01 0.0000E+00 3.6000E+01 1.9800E+02 3.6000E+01 0.0000E+00
 TRANSPORT ( OUT )                       
 Start                3.5402E+01 0.0000E+00 3.4467E+01 2.0557E+02 3.6000E+01 0.0000E+00
 Upstream pipe        3.5396E+01 0.0000E+00 3.4453E+01 2.0564E+02 3.6000E+01 0.0000E+00
 Near pipe            3.5396E+01 0.0000E+00 3.4453E+01 2.0564E+02 3.6000E+01 0.0000E+00
 Far field            3.5396E+01 0.0000E+00 3.4453E+01 2.0564E+02 3.6000E+01 0.0000E+00
 SWT_Normal           3.5396E+01 0.0000E+00 3.4453E+01 2.0564E+02 3.6000E+01 0.0000E+00
 
1
                                             Water quality calculation Sobek-WQ      
                                                                                     
                                                                              mass/m2
                                             T0: 2010.01.01 00:00:00  (scu=       1s)
   4.17% Completed


 DUMP OF INTERMEDIATE RESULTS IN SELECTED SEGMENTS
  TIME =   0D  6H  0M  0S .
 
 TOTAL MASS IN SYSTEM 1.8585E+04 0.0000E+00 1.7943E+04 1.0962E+05 1.8999E+04 0.0000E+00
 CHANGES BY PROCESSES-6.8704E+01 0.0000E+00-1.7275E+02 7.8924E+02 0.0000E+00 0.0000E+00
 CHANGES BY LOADS     0.0000E+00 0.0000E+00 0.0000E+00 0.0000E+00 0.0000E+00 0.0000E+00
 BOUNDARY INFLOWS     3.6000E+01 0.0000E+00 3.6000E+01 1.9800E+02 3.6000E+01 0.0000E+00
 BOUNDARY OUTFLOWS    3.5266E+01 0.0000E+00 3.4125E+01 2.0716E+02 3.6000E+01 0.0000E+00
                      NH4        CBOD5      CBOD5_2    OXY        Continuity SOD        
                                                                                        
 CONCENTRATION                           
 Start                9.7841E-01 0.0000E+00 9.4491E-01 5.7678E+00 1.0000E+00 0.0000E+00
 Upstream pipe        9.7810E-01 0.0000E+00 9.4413E-01 5.7715E+00 1.0000E+00 0.0000E+00
 Near pipe            9.7810E-01 0.0000E+00 9.4413E-01 5.7715E+00 1.0000E+00 0.0000E+00
 Far field            9.7810E-01 0.0000E+00 9.4413E-01 5.7715E+00 1.0000E+00 0.0000E+00
 SWT_Normal           9.7823E-01 0.0000E+00 9.4445E-01 5.7700E+00 1.0000E+00 0.0000E+00
 MASS                                    
 Start                9.7834E+02 0.0000E+00 9.4484E+02 5.7674E+03 9.9993E+02 0.0000E+00
 Upstream pipe        9.7803E+02 0.0000E+00 9.4406E+02 5.7711E+03 9.9993E+02 0.0000E+00
 Near pipe            9.7803E+02 0.0000E+00 9.4406E+02 5.7711E+03 9.9993E+02 0.0000E+00
 Far field            9.7803E+02 0.0000E+00 9.4406E+02 5.7711E+03 9.9992E+02 0.0000E+00
 SWT_Normal           1.8585E+04 0.0000E+00 1.7943E+04 1.0962E+05 1.8999E+04 0.0000E+00
 PROCESSES                               
 Start               -3.6165E+00 0.0000E+00-9.0951E+00 4.1592E+01 0.0000E+00 0.0000E+00
 Upstream pipe       -3.6156E+00 0.0000E+00-9.0894E+00 4.1496E+01 0.0000E+00 0.0000E+00
 Near pipe           -3.6156E+00 0.0000E+00-9.0894E+00 4.1496E+01 0.0000E+00 0.0000E+00
 Far field           -3.6156E+00 0.0000E+00-9.0894E+00 4.1496E+01 0.0000E+00 0.0000E+00
 SWT_Normal          -6.8705E+01 0.0000E+00-1.7275E+02 7.8924E+02 0.0000E+00 0.0000E+00
 LOADS ( IN )                            
 Start                0.0000E+00 0.0000E+00 0.0000E+00 0.0000E+00 0.0000E+00 0.0000E+00
 Upstream pipe        0.0000E+00 0.0000E+00 0.0000E+00 0.0000E+00 0.0000E+00 0.0000E+00
 Near pipe            0.0000E+00 0.0000E+00 0.0000E+00 0.0000E+00 0.0000E+00 0.0000E+00
 Far field            0.0000E+00 0.0000E+00 0.0000E+00 0.0000E+00 0.0000E+00 0.0000E+00
 SWT_Normal           0.0000E+00 0.0000E+00 0.0000E+00 0.0000E+00 0.0000E+00 0.0000E+00
 LOADS ( OUT )                           
 Start                0.0000E+00 0.0000E+00 0.0000E+00 0.0000E+00 0.0000E+00 0.0000E+00
 Upstream pipe        0.0000E+00 0.0000E+00 0.0000E+00 0.0000E+00 0.0000E+00 0.0000E+00
 Near pipe            0.0000E+00 0.0000E+00 0.0000E+00 0.0000E+00 0.0000E+00 0.0000E+00
 Far field            0.0000E+00 0.0000E+00 0.0000E+00 0.0000E+00 0.0000E+00 0.0000E+00
 SWT_Normal           0.0000E+00 0.0000E+00 0.0000E+00 0.0000E+00 0.0000E+00 0.0000E+00
 TRANSPORT ( IN )                        
 Start                3.5398E+01 0.0000E+00 3.4461E+01 2.0555E+02 3.6000E+01 0.0000E+00
 Upstream pipe        3.5266E+01 0.0000E+00 3.4126E+01 2.0715E+02 3.6000E+01 0.0000E+00
 Near pipe            3.5266E+01 0.0000E+00 3.4125E+01 2.0716E+02 3.6000E+01 0.0000E+00
 Far field            3.5266E+01 0.0000E+00 3.4125E+01 2.0716E+02 3.6000E+01 0.0000E+00
 SWT_Normal           3.6000E+01 0.0000E+00 3.6000E+01 1.9800E+02 3.6000E+01 0.0000E+00
 TRANSPORT ( OUT )                       
 Start                3.5275E+01 0.0000E+00 3.4148E+01 2.0705E+02 3.6000E+01 0.0000E+00
 Upstream pipe        3.5266E+01 0.0000E+00 3.4125E+01 2.0716E+02 3.6000E+01 0.0000E+00
 Near pipe            3.5266E+01 0.0000E+00 3.4125E+01 2.0716E+02 3.6000E+01 0.0000E+00
 Far field            3.5266E+01 0.0000E+00 3.4125E+01 2.0716E+02 3.6000E+01 0.0000E+00
 SWT_Normal           3.5266E+01 0.0000E+00 3.4125E+01 2.0716E+02 3.6000E+01 0.0000E+00
 
   4.86% Completed


 DUMP OF INTERMEDIATE RESULTS IN SELECTED SEGMENTS
  TIME =   0D  7H  0M  0S .
 
 TOTAL MASS IN SYSTEM 1.8517E+04 0.0000E+00 1.7774E+04 1.1037E+05 1.8999E+04 0.0000E+00
 CHANGES BY PROCESSES-6.8454E+01 0.0000E+00-1.7112E+02 7.6336E+02 0.0000E+00 0.0000E+00
 CHANGES BY LOADS     0.0000E+00 0.0000E+00 0.0000E+00 0.0000E+00 0.0000E+00 0.0000E+00
 BOUNDARY INFLOWS     3.6000E+01 0.0000E+00 3.6000E+01 1.9800E+02 3.6000E+01 0.0000E+00
 BOUNDARY OUTFLOWS    3.5136E+01 0.0000E+00 3.3799E+01 2.0862E+02 3.6000E+01 0.0000E+00
                      NH4        CBOD5      CBOD5_2    OXY        Continuity SOD        
                                                                                        
 CONCENTRATION                           
 Start                9.7497E-01 0.0000E+00 9.3632E-01 5.8061E+00 1.0000E+00 0.0000E+00
 Upstream pipe        9.7450E-01 0.0000E+00 9.3513E-01 5.8116E+00 1.0000E+00 0.0000E+00
 Near pipe            9.7450E-01 0.0000E+00 9.3513E-01 5.8116E+00 1.0000E+00 0.0000E+00
 Far field            9.7450E-01 0.0000E+00 9.3513E-01 5.8116E+00 1.0000E+00 0.0000E+00
 SWT_Normal           9.7467E-01 0.0000E+00 9.3556E-01 5.8096E+00 1.0000E+00 0.0000E+00
 MASS                                    
 Start                9.7490E+02 0.0000E+00 9.3625E+02 5.8057E+03 9.9993E+02 0.0000E+00
 Upstream pipe        9.7443E+02 0.0000E+00 9.3506E+02 5.8112E+03 9.9993E+02 0.0000E+00
 Near pipe            9.7443E+02 0.0000E+00 9.3506E+02 5.8112E+03 9.9993E+02 0.0000E+00
 Far field            9.7443E+02 0.0000E+00 9.3506E+02 5.8112E+03 9.9992E+02 0.0000E+00
 SWT_Normal           1.8517E+04 0.0000E+00 1.7774E+04 1.1037E+05 1.8999E+04 0.0000E+00
 PROCESSES                               
 Start               -3.6037E+00 0.0000E+00-9.0117E+00 4.0267E+01 0.0000E+00 0.0000E+00
 Upstream pipe       -3.6023E+00 0.0000E+00-9.0027E+00 4.0119E+01 0.0000E+00 0.0000E+00
 Near pipe           -3.6023E+00 0.0000E+00-9.0027E+00 4.0118E+01 0.0000E+00 0.0000E+00
 Far field           -3.6023E+00 0.0000E+00-9.0027E+00 4.0118E+01 0.0000E+00 0.0000E+00
 SWT_Normal          -6.8454E+01 0.0000E+00-1.7112E+02 7.6336E+02 0.0000E+00 0.0000E+00
 LOADS ( IN )                            
 Start                0.0000E+00 0.0000E+00 0.0000E+00 0.0000E+00 0.0000E+00 0.0000E+00
 Upstream pipe        0.0000E+00 0.0000E+00 0.0000E+00 0.0000E+00 0.0000E+00 0.0000E+00
 Near pipe            0.0000E+00 0.0000E+00 0.0000E+00 0.0000E+00 0.0000E+00 0.0000E+00
 Far field            0.0000E+00 0.0000E+00 0.0000E+00 0.0000E+00 0.0000E+00 0.0000E+00
 SWT_Normal           0.0000E+00 0.0000E+00 0.0000E+00 0.0000E+00 0.0000E+00 0.0000E+00
 LOADS ( OUT )                           
 Start                0.0000E+00 0.0000E+00 0.0000E+00 0.0000E+00 0.0000E+00 0.0000E+00
 Upstream pipe        0.0000E+00 0.0000E+00 0.0000E+00 0.0000E+00 0.0000E+00 0.0000E+00
 Near pipe            0.0000E+00 0.0000E+00 0.0000E+00 0.0000E+00 0.0000E+00 0.0000E+00
 Far field            0.0000E+00 0.0000E+00 0.0000E+00 0.0000E+00 0.0000E+00 0.0000E+00
 SWT_Normal           0.0000E+00 0.0000E+00 0.0000E+00 0.0000E+00 0.0000E+00 0.0000E+00
 TRANSPORT ( IN )                        
 Start                3.5315E+01 0.0000E+00 3.4252E+01 2.0649E+02 3.6000E+01 0.0000E+00
 Upstream pipe        3.5137E+01 0.0000E+00 3.3802E+01 2.0861E+02 3.6000E+01 0.0000E+00
 Near pipe            3.5136E+01 0.0000E+00 3.3799E+01 2.0862E+02 3.6000E+01 0.0000E+00
 Far field            3.5136E+01 0.0000E+00 3.3799E+01 2.0862E+02 3.6000E+01 0.0000E+00
 SWT_Normal           3.6000E+01 0.0000E+00 3.6000E+01 1.9800E+02 3.6000E+01 0.0000E+00
 TRANSPORT ( OUT )                       
 Start                3.5150E+01 0.0000E+00 3.3836E+01 2.0845E+02 3.6000E+01 0.0000E+00
 Upstream pipe        3.5136E+01 0.0000E+00 3.3799E+01 2.0862E+02 3.6000E+01 0.0000E+00
 Near pipe            3.5136E+01 0.0000E+00 3.3799E+01 2.0862E+02 3.6000E+01 0.0000E+00
 Far field            3.5136E+01 0.0000E+00 3.3799E+01 2.0862E+02 3.6000E+01 0.0000E+00
 SWT_Normal           3.5136E+01 0.0000E+00 3.3799E+01 2.0862E+02 3.6000E+01 0.0000E+00
 
   5.56% Completed


 DUMP OF INTERMEDIATE RESULTS IN SELECTED SEGMENTS
  TIME =   0D  8H  0M  0S .
 
 TOTAL MASS IN SYSTEM 1.8450E+04 0.0000E+00 1.7607E+04 1.1110E+05 1.8999E+04 0.0000E+00
 CHANGES BY PROCESSES-6.8206E+01 0.0000E+00-1.6951E+02 7.3845E+02 0.0000E+00 0.0000E+00
 CHANGES BY LOADS     0.0000E+00 0.0000E+00 0.0000E+00 0.0000E+00 0.0000E+00 0.0000E+00
 BOUNDARY INFLOWS     3.6000E+01 0.0000E+00 3.6000E+01 1.9800E+02 3.6000E+01 0.0000E+00
 BOUNDARY OUTFLOWS    3.5007E+01 0.0000E+00 3.3477E+01 2.1004E+02 3.6000E+01 0.0000E+00
                      NH4        CBOD5      CBOD5_2    OXY        Continuity SOD        
                                                                                        
 CONCENTRATION                           
 Start                9.7159E-01 0.0000E+00 9.2791E-01 5.8427E+00 1.0000E+00 0.0000E+00
 Upstream pipe        9.7091E-01 0.0000E+00 9.2622E-01 5.8504E+00 1.0000E+00 0.0000E+00
 Near pipe            9.7091E-01 0.0000E+00 9.2621E-01 5.8504E+00 1.0000E+00 0.0000E+00
 Far field            9.7091E-01 0.0000E+00 9.2621E-01 5.8504E+00 1.0000E+00 0.0000E+00
 SWT_Normal           9.7113E-01 0.0000E+00 9.2677E-01 5.8478E+00 1.0000E+00 0.0000E+00
 MASS                                    
 Start                9.7152E+02 0.0000E+00 9.2785E+02 5.8422E+03 9.9993E+02 0.0000E+00
 Upstream pipe        9.7084E+02 0.0000E+00 9.2615E+02 5.8499E+03 9.9993E+02 0.0000E+00
 Near pipe            9.7084E+02 0.0000E+00 9.2614E+02 5.8500E+03 9.9993E+02 0.0000E+00
 Far field            9.7084E+02 0.0000E+00 9.2614E+02 5.8500E+03 9.9992E+02 0.0000E+00
 SWT_Normal           1.8450E+04 0.0000E+00 1.7607E+04 1.1110E+05 1.8999E+04 0.0000E+00
 PROCESSES                               
 Start               -3.5911E+00 0.0000E+00-8.9302E+00 3.9005E+01 0.0000E+00 0.0000E+00
 Upstream pipe       -3.5891E+00 0.0000E+00-8.9169E+00 3.8790E+01 0.0000E+00 0.0000E+00
 Near pipe           -3.5891E+00 0.0000E+00-8.9168E+00 3.8789E+01 0.0000E+00 0.0000E+00
 Far field           -3.5891E+00 0.0000E+00-8.9168E+00 3.8789E+01 0.0000E+00 0.0000E+00
 SWT_Normal          -6.8206E+01 0.0000E+00-1.6951E+02 7.3845E+02 0.0000E+00 0.0000E+00
 LOADS ( IN )                            
 Start                0.0000E+00 0.0000E+00 0.0000E+00 0.0000E+00 0.0000E+00 0.0000E+00
 Upstream pipe        0.0000E+00 0.0000E+00 0.0000E+00 0.0000E+00 0.0000E+00 0.0000E+00
 Near pipe            0.0000E+00 0.0000E+00 0.0000E+00 0.0000E+00 0.0000E+00 0.0000E+00
 Far field            0.0000E+00 0.0000E+00 0.0000E+00 0.0000E+00 0.0000E+00 0.0000E+00
 SWT_Normal           0.0000E+00 0.0000E+00 0.0000E+00 0.0000E+00 0.0000E+00 0.0000E+00
 LOADS ( OUT )                           
 Start                0.0000E+00 0.0000E+00 0.0000E+00 0.0000E+00 0.0000E+00 0.0000E+00
 Upstream pipe        0.0000E+00 0.0000E+00 0.0000E+00 0.0000E+00 0.0000E+00 0.0000E+00
 Near pipe            0.0000E+00 0.0000E+00 0.0000E+00 0.0000E+00 0.0000E+00 0.0000E+00
 Far field            0.0000E+00 0.0000E+00 0.0000E+00 0.0000E+00 0.0000E+00 0.0000E+00
 SWT_Normal           0.0000E+00 0.0000E+00 0.0000E+00 0.0000E+00 0.0000E+00 0.0000E+00
 TRANSPORT ( IN )                        
 Start                3.5237E+01 0.0000E+00 3.4059E+01 2.0734E+02 3.6000E+01 0.0000E+00
 Upstream pipe        3.5008E+01 0.0000E+00 3.3481E+01 2.1002E+02 3.6000E+01 0.0000E+00
 Near pipe            3.5007E+01 0.0000E+00 3.3477E+01 2.1004E+02 3.6000E+01 0.0000E+00
 Far field            3.5007E+01 0.0000E+00 3.3477E+01 2.1004E+02 3.6000E+01 0.0000E+00
 SWT_Normal           3.6000E+01 0.0000E+00 3.6000E+01 1.9800E+02 3.6000E+01 0.0000E+00
 TRANSPORT ( OUT )                       
 Start                3.5028E+01 0.0000E+00 3.3530E+01 2.0979E+02 3.6000E+01 0.0000E+00
 Upstream pipe        3.5007E+01 0.0000E+00 3.3477E+01 2.1004E+02 3.6000E+01 0.0000E+00
 Near pipe            3.5007E+01 0.0000E+00 3.3477E+01 2.1004E+02 3.6000E+01 0.0000E+00
 Far field            3.5007E+01 0.0000E+00 3.3477E+01 2.1004E+02 3.6000E+01 0.0000E+00
 SWT_Normal           3.5007E+01 0.0000E+00 3.3477E+01 2.1004E+02 3.6000E+01 0.0000E+00
 
1
                                             Water quality calculation Sobek-WQ      
                                                                                     
                                                                              mass/m2
                                             T0: 2010.01.01 00:00:00  (scu=       1s)
   6.25% Completed


 DUMP OF INTERMEDIATE RESULTS IN SELECTED SEGMENTS
  TIME =   0D  9H  0M  0S .
 
 TOTAL MASS IN SYSTEM 1.8383E+04 0.0000E+00 1.7442E+04 1.1180E+05 1.8999E+04 0.0000E+00
 CHANGES BY PROCESSES-6.7958E+01 0.0000E+00-1.6792E+02 7.1446E+02 0.0000E+00 0.0000E+00
 CHANGES BY LOADS     0.0000E+00 0.0000E+00 0.0000E+00 0.0000E+00 0.0000E+00 0.0000E+00
 BOUNDARY INFLOWS     3.6000E+01 0.0000E+00 3.6000E+01 1.9800E+02 3.6000E+01 0.0000E+00
 BOUNDARY OUTFLOWS    3.4878E+01 0.0000E+00 3.3158E+01 2.1141E+02 3.6000E+01 0.0000E+00
                      NH4        CBOD5      CBOD5_2    OXY        Continuity SOD        
                                                                                        
 CONCENTRATION                           
 Start                9.6827E-01 0.0000E+00 9.1971E-01 5.8775E+00 1.0000E+00 0.0000E+00
 Upstream pipe        9.6734E-01 0.0000E+00 9.1739E-01 5.8879E+00 1.0000E+00 0.0000E+00
 Near pipe            9.6733E-01 0.0000E+00 9.1738E-01 5.8879E+00 1.0000E+00 0.0000E+00
 Far field            9.6734E-01 0.0000E+00 9.1738E-01 5.8879E+00 1.0000E+00 0.0000E+00
 SWT_Normal           9.6762E-01 0.0000E+00 9.1808E-01 5.8847E+00 1.0000E+00 0.0000E+00
 MASS                                    
 Start                9.6820E+02 0.0000E+00 9.1964E+02 5.8771E+03 9.9993E+02 0.0000E+00
 Upstream pipe        9.6727E+02 0.0000E+00 9.1732E+02 5.8874E+03 9.9993E+02 0.0000E+00
 Near pipe            9.6726E+02 0.0000E+00 9.1731E+02 5.8875E+03 9.9993E+02 0.0000E+00
 Far field            9.6726E+02 0.0000E+00 9.1731E+02 5.8875E+03 9.9992E+02 0.0000E+00
 SWT_Normal           1.8383E+04 0.0000E+00 1.7442E+04 1.1180E+05 1.8999E+04 0.0000E+00
 PROCESSES                               
 Start               -3.5787E+00 0.0000E+00-8.8506E+00 3.7804E+01 0.0000E+00 0.0000E+00
 Upstream pipe       -3.5759E+00 0.0000E+00-8.8319E+00 3.7509E+01 0.0000E+00 0.0000E+00
 Near pipe           -3.5758E+00 0.0000E+00-8.8318E+00 3.7507E+01 0.0000E+00 0.0000E+00
 Far field           -3.5758E+00 0.0000E+00-8.8318E+00 3.7507E+01 0.0000E+00 0.0000E+00
 SWT_Normal          -6.7958E+01 0.0000E+00-1.6792E+02 7.1446E+02 0.0000E+00 0.0000E+00
 LOADS ( IN )                            
 Start                0.0000E+00 0.0000E+00 0.0000E+00 0.0000E+00 0.0000E+00 0.0000E+00
 Upstream pipe        0.0000E+00 0.0000E+00 0.0000E+00 0.0000E+00 0.0000E+00 0.0000E+00
 Near pipe            0.0000E+00 0.0000E+00 0.0000E+00 0.0000E+00 0.0000E+00 0.0000E+00
 Far field            0.0000E+00 0.0000E+00 0.0000E+00 0.0000E+00 0.0000E+00 0.0000E+00
 SWT_Normal           0.0000E+00 0.0000E+00 0.0000E+00 0.0000E+00 0.0000E+00 0.0000E+00
 LOADS ( OUT )                           
 Start                0.0000E+00 0.0000E+00 0.0000E+00 0.0000E+00 0.0000E+00 0.0000E+00
 Upstream pipe        0.0000E+00 0.0000E+00 0.0000E+00 0.0000E+00 0.0000E+00 0.0000E+00
 Near pipe            0.0000E+00 0.0000E+00 0.0000E+00 0.0000E+00 0.0000E+00 0.0000E+00
 Far field            0.0000E+00 0.0000E+00 0.0000E+00 0.0000E+00 0.0000E+00 0.0000E+00
 SWT_Normal           0.0000E+00 0.0000E+00 0.0000E+00 0.0000E+00 0.0000E+00 0.0000E+00
 TRANSPORT ( IN )                        
 Start                3.5165E+01 0.0000E+00 3.3881E+01 2.0810E+02 3.6000E+01 0.0000E+00
 Upstream pipe        3.4880E+01 0.0000E+00 3.3164E+01 2.1138E+02 3.6000E+01 0.0000E+00
 Near pipe            3.4878E+01 0.0000E+00 3.3158E+01 2.1141E+02 3.6000E+01 0.0000E+00
 Far field            3.4878E+01 0.0000E+00 3.3158E+01 2.1141E+02 3.6000E+01 0.0000E+00
 SWT_Normal           3.6000E+01 0.0000E+00 3.6000E+01 1.9800E+02 3.6000E+01 0.0000E+00
 TRANSPORT ( OUT )                       
 Start                3.4907E+01 0.0000E+00 3.3232E+01 2.1107E+02 3.6000E+01 0.0000E+00
 Upstream pipe        3.4878E+01 0.0000E+00 3.3158E+01 2.1140E+02 3.6000E+01 0.0000E+00
 Near pipe            3.4878E+01 0.0000E+00 3.3158E+01 2.1141E+02 3.6000E+01 0.0000E+00
 Far field            3.4878E+01 0.0000E+00 3.3158E+01 2.1141E+02 3.6000E+01 0.0000E+00
 SWT_Normal           3.4878E+01 0.0000E+00 3.3158E+01 2.1141E+02 3.6000E+01 0.0000E+00
 
   6.94% Completed


 DUMP OF INTERMEDIATE RESULTS IN SELECTED SEGMENTS
  TIME =   0D 10H  0M  0S .
 
 TOTAL MASS IN SYSTEM 1.8317E+04 0.0000E+00 1.7279E+04 1.1248E+05 1.8999E+04 0.0000E+00
 CHANGES BY PROCESSES-6.7712E+01 0.0000E+00-1.6634E+02 6.9136E+02 0.0000E+00 0.0000E+00
 CHANGES BY LOADS     0.0000E+00 0.0000E+00 0.0000E+00 0.0000E+00 0.0000E+00 0.0000E+00
 BOUNDARY INFLOWS     3.6000E+01 0.0000E+00 3.6000E+01 1.9800E+02 3.6000E+01 0.0000E+00
 BOUNDARY OUTFLOWS    3.4749E+01 0.0000E+00 3.2842E+01 2.1273E+02 3.6000E+01 0.0000E+00
                      NH4        CBOD5      CBOD5_2    OXY        Continuity SOD        
                                                                                        
 CONCENTRATION                           
 Start                9.6501E-01 0.0000E+00 9.1171E-01 5.9107E+00 1.0000E+00 0.0000E+00
 Upstream pipe        9.6378E-01 0.0000E+00 9.0865E-01 5.9241E+00 1.0000E+00 0.0000E+00
 Near pipe            9.6377E-01 0.0000E+00 9.0863E-01 5.9242E+00 1.0000E+00 0.0000E+00
 Far field            9.6377E-01 0.0000E+00 9.0863E-01 5.9242E+00 1.0000E+00 0.0000E+00
 SWT_Normal           9.6412E-01 0.0000E+00 9.0949E-01 5.9203E+00 1.0000E+00 0.0000E+00
 MASS                                    
 Start                9.6494E+02 0.0000E+00 9.1165E+02 5.9102E+03 9.9993E+02 0.0000E+00
 Upstream pipe        9.6371E+02 0.0000E+00 9.0858E+02 5.9237E+03 9.9993E+02 0.0000E+00
 Near pipe            9.6370E+02 0.0000E+00 9.0856E+02 5.9238E+03 9.9993E+02 0.0000E+00
 Far field            9.6370E+02 0.0000E+00 9.0856E+02 5.9238E+03 9.9992E+02 0.0000E+00
 SWT_Normal           1.8317E+04 0.0000E+00 1.7279E+04 1.1248E+05 1.8999E+04 0.0000E+00
 PROCESSES                               
 Start               -3.5666E+00 0.0000E+00-8.7729E+00 3.6663E+01 0.0000E+00 0.0000E+00
 Upstream pipe       -3.5627E+00 0.0000E+00-8.7478E+00 3.6273E+01 0.0000E+00 0.0000E+00
 Near pipe           -3.5627E+00 0.0000E+00-8.7476E+00 3.6271E+01 0.0000E+00 0.0000E+00
 Far field           -3.5627E+00 0.0000E+00-8.7476E+00 3.6271E+01 0.0000E+00 0.0000E+00
 SWT_Normal          -6.7712E+01 0.0000E+00-1.6634E+02 6.9136E+02 0.0000E+00 0.0000E+00
 LOADS ( IN )                            
 Start                0.0000E+00 0.0000E+00 0.0000E+00 0.0000E+00 0.0000E+00 0.0000E+00
 Upstream pipe        0.0000E+00 0.0000E+00 0.0000E+00 0.0000E+00 0.0000E+00 0.0000E+00
 Near pipe            0.0000E+00 0.0000E+00 0.0000E+00 0.0000E+00 0.0000E+00 0.0000E+00
 Far field            0.0000E+00 0.0000E+00 0.0000E+00 0.0000E+00 0.0000E+00 0.0000E+00
 SWT_Normal           0.0000E+00 0.0000E+00 0.0000E+00 0.0000E+00 0.0000E+00 0.0000E+00
 LOADS ( OUT )                           
 Start                0.0000E+00 0.0000E+00 0.0000E+00 0.0000E+00 0.0000E+00 0.0000E+00
 Upstream pipe        0.0000E+00 0.0000E+00 0.0000E+00 0.0000E+00 0.0000E+00 0.0000E+00
 Near pipe            0.0000E+00 0.0000E+00 0.0000E+00 0.0000E+00 0.0000E+00 0.0000E+00
 Far field            0.0000E+00 0.0000E+00 0.0000E+00 0.0000E+00 0.0000E+00 0.0000E+00
 SWT_Normal           0.0000E+00 0.0000E+00 0.0000E+00 0.0000E+00 0.0000E+00 0.0000E+00
 TRANSPORT ( IN )                        
 Start                3.5099E+01 0.0000E+00 3.3717E+01 2.0879E+02 3.6000E+01 0.0000E+00
 Upstream pipe        3.4753E+01 0.0000E+00 3.2850E+01 2.1269E+02 3.6000E+01 0.0000E+00
 Near pipe            3.4749E+01 0.0000E+00 3.2842E+01 2.1273E+02 3.6000E+01 0.0000E+00
 Far field            3.4749E+01 0.0000E+00 3.2842E+01 2.1273E+02 3.6000E+01 0.0000E+00
 SWT_Normal           3.6000E+01 0.0000E+00 3.6000E+01 1.9800E+02 3.6000E+01 0.0000E+00
 TRANSPORT ( OUT )                       
 Start                3.4789E+01 0.0000E+00 3.2941E+01 2.1229E+02 3.6000E+01 0.0000E+00
 Upstream pipe        3.4749E+01 0.0000E+00 3.2842E+01 2.1273E+02 3.6000E+01 0.0000E+00
 Near pipe            3.4749E+01 0.0000E+00 3.2842E+01 2.1273E+02 3.6000E+01 0.0000E+00
 Far field            3.4749E+01 0.0000E+00 3.2842E+01 2.1273E+02 3.6000E+01 0.0000E+00
 SWT_Normal           3.4749E+01 0.0000E+00 3.2842E+01 2.1273E+02 3.6000E+01 0.0000E+00
 
   7.64% Completed


 DUMP OF INTERMEDIATE RESULTS IN SELECTED SEGMENTS
  TIME =   0D 11H  0M  0S .
 
 TOTAL MASS IN SYSTEM 1.8251E+04 0.0000E+00 1.7118E+04 1.1313E+05 1.8999E+04 0.0000E+00
 CHANGES BY PROCESSES-6.7468E+01 0.0000E+00-1.6479E+02 6.6912E+02 0.0000E+00 0.0000E+00
 CHANGES BY LOADS     0.0000E+00 0.0000E+00 0.0000E+00 0.0000E+00 0.0000E+00 0.0000E+00
 BOUNDARY INFLOWS     3.6000E+01 0.0000E+00 3.6000E+01 1.9800E+02 3.6000E+01 0.0000E+00
 BOUNDARY OUTFLOWS    3.4621E+01 0.0000E+00 3.2528E+01 2.1401E+02 3.6000E+01 0.0000E+00
                      NH4        CBOD5      CBOD5_2    OXY        Continuity SOD        
                                                                                        
 CONCENTRATION                           
 Start                9.6182E-01 0.0000E+00 9.0392E-01 5.9422E+00 1.0000E+00 0.0000E+00
 Upstream pipe        9.6024E-01 0.0000E+00 9.0000E-01 5.9591E+00 1.0000E+00 0.0000E+00
 Near pipe            9.6022E-01 0.0000E+00 8.9996E-01 5.9593E+00 1.0000E+00 0.0000E+00
 Far field            9.6022E-01 0.0000E+00 8.9996E-01 5.9593E+00 1.0000E+00 0.0000E+00
 SWT_Normal           9.6064E-01 0.0000E+00 9.0100E-01 5.9547E+00 1.0000E+00 0.0000E+00
 MASS                                    
 Start                9.6175E+02 0.0000E+00 9.0386E+02 5.9418E+03 9.9993E+02 0.0000E+00
 Upstream pipe        9.6016E+02 0.0000E+00 8.9993E+02 5.9587E+03 9.9993E+02 0.0000E+00
 Near pipe            9.6015E+02 0.0000E+00 8.9990E+02 5.9588E+03 9.9993E+02 0.0000E+00
 Far field            9.6015E+02 0.0000E+00 8.9990E+02 5.9588E+03 9.9992E+02 0.0000E+00
 SWT_Normal           1.8251E+04 0.0000E+00 1.7118E+04 1.1313E+05 1.8999E+04 0.0000E+00
 PROCESSES                               
 Start               -3.5547E+00 0.0000E+00-8.6971E+00 3.5579E+01 0.0000E+00 0.0000E+00
 Upstream pipe       -3.5496E+00 0.0000E+00-8.6644E+00 3.5081E+01 0.0000E+00 0.0000E+00
 Near pipe           -3.5495E+00 0.0000E+00-8.6642E+00 3.5078E+01 0.0000E+00 0.0000E+00
 Far field           -3.5495E+00 0.0000E+00-8.6642E+00 3.5078E+01 0.0000E+00 0.0000E+00
 SWT_Normal          -6.7468E+01 0.0000E+00-1.6479E+02 6.6912E+02 0.0000E+00 0.0000E+00
 LOADS ( IN )                            
 Start                0.0000E+00 0.0000E+00 0.0000E+00 0.0000E+00 0.0000E+00 0.0000E+00
 Upstream pipe        0.0000E+00 0.0000E+00 0.0000E+00 0.0000E+00 0.0000E+00 0.0000E+00
 Near pipe            0.0000E+00 0.0000E+00 0.0000E+00 0.0000E+00 0.0000E+00 0.0000E+00
 Far field            0.0000E+00 0.0000E+00 0.0000E+00 0.0000E+00 0.0000E+00 0.0000E+00
 SWT_Normal           0.0000E+00 0.0000E+00 0.0000E+00 0.0000E+00 0.0000E+00 0.0000E+00
 LOADS ( OUT )                           
 Start                0.0000E+00 0.0000E+00 0.0000E+00 0.0000E+00 0.0000E+00 0.0000E+00
 Upstream pipe        0.0000E+00 0.0000E+00 0.0000E+00 0.0000E+00 0.0000E+00 0.0000E+00
 Near pipe            0.0000E+00 0.0000E+00 0.0000E+00 0.0000E+00 0.0000E+00 0.0000E+00
 Far field            0.0000E+00 0.0000E+00 0.0000E+00 0.0000E+00 0.0000E+00 0.0000E+00
 SWT_Normal           0.0000E+00 0.0000E+00 0.0000E+00 0.0000E+00 0.0000E+00 0.0000E+00
 TRANSPORT ( IN )                        
 Start                3.5037E+01 0.0000E+00 3.3565E+01 2.0941E+02 3.6000E+01 0.0000E+00
 Upstream pipe        3.4626E+01 0.0000E+00 3.2541E+01 2.1396E+02 3.6000E+01 0.0000E+00
 Near pipe            3.4621E+01 0.0000E+00 3.2528E+01 2.1401E+02 3.6000E+01 0.0000E+00
 Far field            3.4621E+01 0.0000E+00 3.2528E+01 2.1401E+02 3.6000E+01 0.0000E+00
 SWT_Normal           3.6000E+01 0.0000E+00 3.6000E+01 1.9800E+02 3.6000E+01 0.0000E+00
 TRANSPORT ( OUT )                       
 Start                3.4673E+01 0.0000E+00 3.2658E+01 2.1345E+02 3.6000E+01 0.0000E+00
 Upstream pipe        3.4622E+01 0.0000E+00 3.2529E+01 2.1401E+02 3.6000E+01 0.0000E+00
 Near pipe            3.4621E+01 0.0000E+00 3.2528E+01 2.1401E+02 3.6000E+01 0.0000E+00
 Far field            3.4621E+01 0.0000E+00 3.2528E+01 2.1401E+02 3.6000E+01 0.0000E+00
 SWT_Normal           3.4621E+01 0.0000E+00 3.2528E+01 2.1401E+02 3.6000E+01 0.0000E+00
 
1
                                             Water quality calculation Sobek-WQ      
                                                                                     
                                                                              mass/m2
                                             T0: 2010.01.01 00:00:00  (scu=       1s)
   8.33% Completed


 DUMP OF INTERMEDIATE RESULTS IN SELECTED SEGMENTS
  TIME =   0D 12H  0M  0S .
 
 TOTAL MASS IN SYSTEM 1.8185E+04 0.0000E+00 1.6958E+04 1.1376E+05 1.8999E+04 0.0000E+00
 CHANGES BY PROCESSES-6.7224E+01 0.0000E+00-1.6325E+02 6.4771E+02 0.0000E+00 0.0000E+00
 CHANGES BY LOADS     0.0000E+00 0.0000E+00 0.0000E+00 0.0000E+00 0.0000E+00 0.0000E+00
 BOUNDARY INFLOWS     3.6000E+01 0.0000E+00 3.6000E+01 1.9800E+02 3.6000E+01 0.0000E+00
 BOUNDARY OUTFLOWS    3.4494E+01 0.0000E+00 3.2218E+01 2.1525E+02 3.6000E+01 0.0000E+00
                      NH4        CBOD5      CBOD5_2    OXY        Continuity SOD        
                                                                                        
 CONCENTRATION                           
 Start                9.5870E-01 0.0000E+00 8.9634E-01 5.9722E+00 1.0000E+00 0.0000E+00
 Upstream pipe        9.5670E-01 0.0000E+00 8.9143E-01 5.9930E+00 1.0000E+00 0.0000E+00
 Near pipe            9.5669E-01 0.0000E+00 8.9138E-01 5.9932E+00 1.0000E+00 0.0000E+00
 Far field            9.5669E-01 0.0000E+00 8.9138E-01 5.9932E+00 1.0000E+00 0.0000E+00
 SWT_Normal           9.5718E-01 0.0000E+00 8.9261E-01 5.9879E+00 1.0000E+00 0.0000E+00
 MASS                                    
 Start                9.5863E+02 0.0000E+00 8.9628E+02 5.9717E+03 9.9993E+02 0.0000E+00
 Upstream pipe        9.5663E+02 0.0000E+00 8.9136E+02 5.9926E+03 9.9993E+02 0.0000E+00
 Near pipe            9.5661E+02 0.0000E+00 8.9132E+02 5.9928E+03 9.9993E+02 0.0000E+00
 Far field            9.5661E+02 0.0000E+00 8.9131E+02 5.9928E+03 9.9992E+02 0.0000E+00
 SWT_Normal           1.8185E+04 0.0000E+00 1.6958E+04 1.1376E+05 1.8999E+04 0.0000E+00
 PROCESSES                               
 Start               -3.5430E+00 0.0000E+00-8.6234E+00 3.4552E+01 0.0000E+00 0.0000E+00
 Upstream pipe       -3.5365E+00 0.0000E+00-8.5819E+00 3.3932E+01 0.0000E+00 0.0000E+00
 Near pipe           -3.5365E+00 0.0000E+00-8.5816E+00 3.3927E+01 0.0000E+00 0.0000E+00
 Far field           -3.5365E+00 0.0000E+00-8.5815E+00 3.3927E+01 0.0000E+00 0.0000E+00
 SWT_Normal          -6.7224E+01 0.0000E+00-1.6325E+02 6.4771E+02 0.0000E+00 0.0000E+00
 LOADS ( IN )                            
 Start                0.0000E+00 0.0000E+00 0.0000E+00 0.0000E+00 0.0000E+00 0.0000E+00
 Upstream pipe        0.0000E+00 0.0000E+00 0.0000E+00 0.0000E+00 0.0000E+00 0.0000E+00
 Near pipe            0.0000E+00 0.0000E+00 0.0000E+00 0.0000E+00 0.0000E+00 0.0000E+00
 Far field            0.0000E+00 0.0000E+00 0.0000E+00 0.0000E+00 0.0000E+00 0.0000E+00
 SWT_Normal           0.0000E+00 0.0000E+00 0.0000E+00 0.0000E+00 0.0000E+00 0.0000E+00
 LOADS ( OUT )                           
 Start                0.0000E+00 0.0000E+00 0.0000E+00 0.0000E+00 0.0000E+00 0.0000E+00
 Upstream pipe        0.0000E+00 0.0000E+00 0.0000E+00 0.0000E+00 0.0000E+00 0.0000E+00
 Near pipe            0.0000E+00 0.0000E+00 0.0000E+00 0.0000E+00 0.0000E+00 0.0000E+00
 Far field            0.0000E+00 0.0000E+00 0.0000E+00 0.0000E+00 0.0000E+00 0.0000E+00
 SWT_Normal           0.0000E+00 0.0000E+00 0.0000E+00 0.0000E+00 0.0000E+00 0.0000E+00
 TRANSPORT ( IN )                        
 Start                3.4979E+01 0.0000E+00 3.3426E+01 2.0997E+02 3.6000E+01 0.0000E+00
 Upstream pipe        3.4501E+01 0.0000E+00 3.2235E+01 2.1518E+02 3.6000E+01 0.0000E+00
 Near pipe            3.4494E+01 0.0000E+00 3.2218E+01 2.1525E+02 3.6000E+01 0.0000E+00
 Far field            3.4494E+01 0.0000E+00 3.2218E+01 2.1525E+02 3.6000E+01 0.0000E+00
 SWT_Normal           3.6000E+01 0.0000E+00 3.6000E+01 1.9800E+02 3.6000E+01 0.0000E+00
 TRANSPORT ( OUT )                       
 Start                3.4560E+01 0.0000E+00 3.2381E+01 2.1455E+02 3.6000E+01 0.0000E+00
 Upstream pipe        3.4494E+01 0.0000E+00 3.2220E+01 2.1524E+02 3.6000E+01 0.0000E+00
 Near pipe            3.4494E+01 0.0000E+00 3.2218E+01 2.1525E+02 3.6000E+01 0.0000E+00
 Far field            3.4494E+01 0.0000E+00 3.2218E+01 2.1525E+02 3.6000E+01 0.0000E+00
 SWT_Normal           3.4494E+01 0.0000E+00 3.2218E+01 2.1525E+02 3.6000E+01 0.0000E+00
 
   9.03% Completed


 DUMP OF INTERMEDIATE RESULTS IN SELECTED SEGMENTS
  TIME =   0D 13H  0M  0S .
 
 TOTAL MASS IN SYSTEM 1.8120E+04 0.0000E+00 1.6801E+04 1.1437E+05 1.8999E+04 0.0000E+00
 CHANGES BY PROCESSES-6.6983E+01 0.0000E+00-1.6173E+02 6.2710E+02 0.0000E+00 0.0000E+00
 CHANGES BY LOADS     0.0000E+00 0.0000E+00 0.0000E+00 0.0000E+00 0.0000E+00 0.0000E+00
 BOUNDARY INFLOWS     3.6000E+01 0.0000E+00 3.6000E+01 1.9800E+02 3.6000E+01 0.0000E+00
 BOUNDARY OUTFLOWS    3.4367E+01 0.0000E+00 3.1911E+01 2.1645E+02 3.6000E+01 0.0000E+00
                      NH4        CBOD5      CBOD5_2    OXY        Continuity SOD        
                                                                                        
 CONCENTRATION                           
 Start                9.5564E-01 0.0000E+00 8.8898E-01 6.0006E+00 1.0000E+00 0.0000E+00
 Upstream pipe        9.5319E-01 0.0000E+00 8.8295E-01 6.0257E+00 1.0000E+00 0.0000E+00
 Near pipe            9.5316E-01 0.0000E+00 8.8288E-01 6.0260E+00 1.0000E+00 0.0000E+00
 Far field            9.5316E-01 0.0000E+00 8.8288E-01 6.0260E+00 1.0000E+00 0.0000E+00
 SWT_Normal           9.5374E-01 0.0000E+00 8.8431E-01 6.0199E+00 1.0000E+00 0.0000E+00
 MASS                                    
 Start                9.5557E+02 0.0000E+00 8.8891E+02 6.0002E+03 9.9993E+02 0.0000E+00
 Upstream pipe        9.5312E+02 0.0000E+00 8.8288E+02 6.0253E+03 9.9993E+02 0.0000E+00
 Near pipe            9.5309E+02 0.0000E+00 8.8282E+02 6.0256E+03 9.9993E+02 0.0000E+00
 Far field            9.5309E+02 0.0000E+00 8.8281E+02 6.0256E+03 9.9992E+02 0.0000E+00
 SWT_Normal           1.8120E+04 0.0000E+00 1.6801E+04 1.1437E+05 1.8999E+04 0.0000E+00
 PROCESSES                               
 Start               -3.5316E+00 0.0000E+00-8.5516E+00 3.3579E+01 0.0000E+00 0.0000E+00
 Upstream pipe       -3.5235E+00 0.0000E+00-8.5003E+00 3.2824E+01 0.0000E+00 0.0000E+00
 Near pipe           -3.5234E+00 0.0000E+00-8.4997E+00 3.2817E+01 0.0000E+00 0.0000E+00
 Far field           -3.5234E+00 0.0000E+00-8.4997E+00 3.2817E+01 0.0000E+00 0.0000E+00
 SWT_Normal          -6.6983E+01 0.0000E+00-1.6173E+02 6.2710E+02 0.0000E+00 0.0000E+00
 LOADS ( IN )                            
 Start                0.0000E+00 0.0000E+00 0.0000E+00 0.0000E+00 0.0000E+00 0.0000E+00
 Upstream pipe        0.0000E+00 0.0000E+00 0.0000E+00 0.0000E+00 0.0000E+00 0.0000E+00
 Near pipe            0.0000E+00 0.0000E+00 0.0000E+00 0.0000E+00 0.0000E+00 0.0000E+00
 Far field            0.0000E+00 0.0000E+00 0.0000E+00 0.0000E+00 0.0000E+00 0.0000E+00
 SWT_Normal           0.0000E+00 0.0000E+00 0.0000E+00 0.0000E+00 0.0000E+00 0.0000E+00
 LOADS ( OUT )                           
 Start                0.0000E+00 0.0000E+00 0.0000E+00 0.0000E+00 0.0000E+00 0.0000E+00
 Upstream pipe        0.0000E+00 0.0000E+00 0.0000E+00 0.0000E+00 0.0000E+00 0.0000E+00
 Near pipe            0.0000E+00 0.0000E+00 0.0000E+00 0.0000E+00 0.0000E+00 0.0000E+00
 Far field            0.0000E+00 0.0000E+00 0.0000E+00 0.0000E+00 0.0000E+00 0.0000E+00
 SWT_Normal           0.0000E+00 0.0000E+00 0.0000E+00 0.0000E+00 0.0000E+00 0.0000E+00
 TRANSPORT ( IN )                        
 Start                3.4926E+01 0.0000E+00 3.3297E+01 2.1047E+02 3.6000E+01 0.0000E+00
 Upstream pipe        3.4376E+01 0.0000E+00 3.1934E+01 2.1635E+02 3.6000E+01 0.0000E+00
 Near pipe            3.4367E+01 0.0000E+00 3.1911E+01 2.1645E+02 3.6000E+01 0.0000E+00
 Far field            3.4367E+01 0.0000E+00 3.1911E+01 2.1645E+02 3.6000E+01 0.0000E+00
 SWT_Normal           3.6000E+01 0.0000E+00 3.6000E+01 1.9800E+02 3.6000E+01 0.0000E+00
 TRANSPORT ( OUT )                       
 Start                3.4449E+01 0.0000E+00 3.2113E+01 2.1560E+02 3.6000E+01 0.0000E+00
 Upstream pipe        3.4368E+01 0.0000E+00 3.1913E+01 2.1644E+02 3.6000E+01 0.0000E+00
 Near pipe            3.4367E+01 0.0000E+00 3.1911E+01 2.1645E+02 3.6000E+01 0.0000E+00
 Far field            3.4367E+01 0.0000E+00 3.1911E+01 2.1645E+02 3.6000E+01 0.0000E+00
 SWT_Normal           3.4367E+01 0.0000E+00 3.1911E+01 2.1645E+02 3.6000E+01 0.0000E+00
 
   9.72% Completed


 DUMP OF INTERMEDIATE RESULTS IN SELECTED SEGMENTS
  TIME =   0D 14H  0M  0S .
 
 TOTAL MASS IN SYSTEM 1.8055E+04 0.0000E+00 1.6645E+04 1.1496E+05 1.8999E+04 0.0000E+00
 CHANGES BY PROCESSES-6.6742E+01 0.0000E+00-1.6023E+02 6.0725E+02 0.0000E+00 0.0000E+00
 CHANGES BY LOADS     0.0000E+00 0.0000E+00 0.0000E+00 0.0000E+00 0.0000E+00 0.0000E+00
 BOUNDARY INFLOWS     3.6000E+01 0.0000E+00 3.6000E+01 1.9800E+02 3.6000E+01 0.0000E+00
 BOUNDARY OUTFLOWS    3.4240E+01 0.0000E+00 3.1607E+01 2.1761E+02 3.6000E+01 0.0000E+00
                      NH4        CBOD5      CBOD5_2    OXY        Continuity SOD        
                                                                                        
 CONCENTRATION                           
 Start                9.5266E-01 0.0000E+00 8.8182E-01 6.0276E+00 1.0000E+00 0.0000E+00
 Upstream pipe        9.4969E-01 0.0000E+00 8.7456E-01 6.0574E+00 1.0000E+00 0.0000E+00
 Near pipe            9.4965E-01 0.0000E+00 8.7446E-01 6.0578E+00 1.0000E+00 0.0000E+00
 Far field            9.4965E-01 0.0000E+00 8.7446E-01 6.0578E+00 1.0000E+00 0.0000E+00
 SWT_Normal           9.5032E-01 0.0000E+00 8.7611E-01 6.0509E+00 1.0000E+00 0.0000E+00
 MASS                                    
 Start                9.5259E+02 0.0000E+00 8.8176E+02 6.0272E+03 9.9993E+02 0.0000E+00
 Upstream pipe        9.4962E+02 0.0000E+00 8.7449E+02 6.0569E+03 9.9993E+02 0.0000E+00
 Near pipe            9.4958E+02 0.0000E+00 8.7440E+02 6.0573E+03 9.9993E+02 0.0000E+00
 Far field            9.4958E+02 0.0000E+00 8.7440E+02 6.0573E+03 9.9992E+02 0.0000E+00
 SWT_Normal           1.8055E+04 0.0000E+00 1.6645E+04 1.1496E+05 1.8999E+04 0.0000E+00
 PROCESSES                               
 Start               -3.5204E+00 0.0000E+00-8.4820E+00 3.2658E+01 0.0000E+00 0.0000E+00
 Upstream pipe       -3.5106E+00 0.0000E+00-8.4194E+00 3.1756E+01 0.0000E+00 0.0000E+00
 Near pipe           -3.5105E+00 0.0000E+00-8.4187E+00 3.1746E+01 0.0000E+00 0.0000E+00
 Far field           -3.5105E+00 0.0000E+00-8.4187E+00 3.1745E+01 0.0000E+00 0.0000E+00
 SWT_Normal          -6.6742E+01 0.0000E+00-1.6023E+02 6.0725E+02 0.0000E+00 0.0000E+00
 LOADS ( IN )                            
 Start                0.0000E+00 0.0000E+00 0.0000E+00 0.0000E+00 0.0000E+00 0.0000E+00
 Upstream pipe        0.0000E+00 0.0000E+00 0.0000E+00 0.0000E+00 0.0000E+00 0.0000E+00
 Near pipe            0.0000E+00 0.0000E+00 0.0000E+00 0.0000E+00 0.0000E+00 0.0000E+00
 Far field            0.0000E+00 0.0000E+00 0.0000E+00 0.0000E+00 0.0000E+00 0.0000E+00
 SWT_Normal           0.0000E+00 0.0000E+00 0.0000E+00 0.0000E+00 0.0000E+00 0.0000E+00
 LOADS ( OUT )                           
 Start                0.0000E+00 0.0000E+00 0.0000E+00 0.0000E+00 0.0000E+00 0.0000E+00
 Upstream pipe        0.0000E+00 0.0000E+00 0.0000E+00 0.0000E+00 0.0000E+00 0.0000E+00
 Near pipe            0.0000E+00 0.0000E+00 0.0000E+00 0.0000E+00 0.0000E+00 0.0000E+00
 Far field            0.0000E+00 0.0000E+00 0.0000E+00 0.0000E+00 0.0000E+00 0.0000E+00
 SWT_Normal           0.0000E+00 0.0000E+00 0.0000E+00 0.0000E+00 0.0000E+00 0.0000E+00
 TRANSPORT ( IN )                        
 Start                3.4877E+01 0.0000E+00 3.3178E+01 2.1092E+02 3.6000E+01 0.0000E+00
 Upstream pipe        3.4252E+01 0.0000E+00 3.1637E+01 2.1749E+02 3.6000E+01 0.0000E+00
 Near pipe            3.4240E+01 0.0000E+00 3.1607E+01 2.1761E+02 3.6000E+01 0.0000E+00
 Far field            3.4240E+01 0.0000E+00 3.1607E+01 2.1761E+02 3.6000E+01 0.0000E+00
 SWT_Normal           3.6000E+01 0.0000E+00 3.6000E+01 1.9800E+02 3.6000E+01 0.0000E+00
 TRANSPORT ( OUT )                       
 Start                3.4340E+01 0.0000E+00 3.1852E+01 2.1659E+02 3.6000E+01 0.0000E+00
 Upstream pipe        3.4241E+01 0.0000E+00 3.1610E+01 2.1759E+02 3.6000E+01 0.0000E+00
 Near pipe            3.4240E+01 0.0000E+00 3.1607E+01 2.1761E+02 3.6000E+01 0.0000E+00
 Far field            3.4240E+01 0.0000E+00 3.1607E+01 2.1761E+02 3.6000E+01 0.0000E+00
 SWT_Normal           3.4240E+01 0.0000E+00 3.1607E+01 2.1761E+02 3.6000E+01 0.0000E+00
 
1
                                             Water quality calculation Sobek-WQ      
                                                                                     
                                                                              mass/m2
                                             T0: 2010.01.01 00:00:00  (scu=       1s)
  10.42% Completed


 DUMP OF INTERMEDIATE RESULTS IN SELECTED SEGMENTS
  TIME =   0D 15H  0M  0S .
 
 TOTAL MASS IN SYSTEM 1.7990E+04 0.0000E+00 1.6491E+04 1.1553E+05 1.8999E+04 0.0000E+00
 CHANGES BY PROCESSES-6.6503E+01 0.0000E+00-1.5875E+02 5.8814E+02 0.0000E+00 0.0000E+00
 CHANGES BY LOADS     0.0000E+00 0.0000E+00 0.0000E+00 0.0000E+00 0.0000E+00 0.0000E+00
 BOUNDARY INFLOWS     3.6000E+01 0.0000E+00 3.6000E+01 1.9800E+02 3.6000E+01 0.0000E+00
 BOUNDARY OUTFLOWS    3.4114E+01 0.0000E+00 3.1305E+01 2.1873E+02 3.6000E+01 0.0000E+00
                      NH4        CBOD5      CBOD5_2    OXY        Continuity SOD        
                                                                                        
 CONCENTRATION                           
 Start                9.4975E-01 0.0000E+00 8.7488E-01 6.0532E+00 1.0000E+00 0.0000E+00
 Upstream pipe        9.4621E-01 0.0000E+00 8.6625E-01 6.0880E+00 1.0000E+00 0.0000E+00
 Near pipe            9.4615E-01 0.0000E+00 8.6612E-01 6.0885E+00 1.0000E+00 0.0000E+00
 Far field            9.4615E-01 0.0000E+00 8.6612E-01 6.0885E+00 1.0000E+00 0.0000E+00
 SWT_Normal           9.4692E-01 0.0000E+00 8.6800E-01 6.0807E+00 1.0000E+00 0.0000E+00
 MASS                                    
 Start                9.4968E+02 0.0000E+00 8.7481E+02 6.0528E+03 9.9993E+02 0.0000E+00
 Upstream pipe        9.4614E+02 0.0000E+00 8.6619E+02 6.0875E+03 9.9993E+02 0.0000E+00
 Near pipe            9.4608E+02 0.0000E+00 8.6606E+02 6.0880E+03 9.9993E+02 0.0000E+00
 Far field            9.4608E+02 0.0000E+00 8.6606E+02 6.0880E+03 9.9992E+02 0.0000E+00
 SWT_Normal           1.7990E+04 0.0000E+00 1.6491E+04 1.1553E+05 1.8999E+04 0.0000E+00
 PROCESSES                               
 Start               -3.5095E+00 0.0000E+00-8.4143E+00 3.1787E+01 0.0000E+00 0.0000E+00
 Upstream pipe       -3.4977E+00 0.0000E+00-8.3394E+00 3.0726E+01 0.0000E+00 0.0000E+00
 Near pipe           -3.4975E+00 0.0000E+00-8.3384E+00 3.0712E+01 0.0000E+00 0.0000E+00
 Far field           -3.4975E+00 0.0000E+00-8.3384E+00 3.0712E+01 0.0000E+00 0.0000E+00
 SWT_Normal          -6.6503E+01 0.0000E+00-1.5875E+02 5.8814E+02 0.0000E+00 0.0000E+00
 LOADS ( IN )                            
 Start                0.0000E+00 0.0000E+00 0.0000E+00 0.0000E+00 0.0000E+00 0.0000E+00
 Upstream pipe        0.0000E+00 0.0000E+00 0.0000E+00 0.0000E+00 0.0000E+00 0.0000E+00
 Near pipe            0.0000E+00 0.0000E+00 0.0000E+00 0.0000E+00 0.0000E+00 0.0000E+00
 Far field            0.0000E+00 0.0000E+00 0.0000E+00 0.0000E+00 0.0000E+00 0.0000E+00
 SWT_Normal           0.0000E+00 0.0000E+00 0.0000E+00 0.0000E+00 0.0000E+00 0.0000E+00
 LOADS ( OUT )                           
 Start                0.0000E+00 0.0000E+00 0.0000E+00 0.0000E+00 0.0000E+00 0.0000E+00
 Upstream pipe        0.0000E+00 0.0000E+00 0.0000E+00 0.0000E+00 0.0000E+00 0.0000E+00
 Near pipe            0.0000E+00 0.0000E+00 0.0000E+00 0.0000E+00 0.0000E+00 0.0000E+00
 Far field            0.0000E+00 0.0000E+00 0.0000E+00 0.0000E+00 0.0000E+00 0.0000E+00
 SWT_Normal           0.0000E+00 0.0000E+00 0.0000E+00 0.0000E+00 0.0000E+00 0.0000E+00
 TRANSPORT ( IN )                        
 Start                3.4831E+01 0.0000E+00 3.3069E+01 2.1133E+02 3.6000E+01 0.0000E+00
 Upstream pipe        3.4130E+01 0.0000E+00 3.1343E+01 2.1858E+02 3.6000E+01 0.0000E+00
 Near pipe            3.4114E+01 0.0000E+00 3.1306E+01 2.1873E+02 3.6000E+01 0.0000E+00
 Far field            3.4114E+01 0.0000E+00 3.1305E+01 2.1873E+02 3.6000E+01 0.0000E+00
 SWT_Normal           3.6000E+01 0.0000E+00 3.6000E+01 1.9800E+02 3.6000E+01 0.0000E+00
 TRANSPORT ( OUT )                       
 Start                3.4234E+01 0.0000E+00 3.1599E+01 2.1754E+02 3.6000E+01 0.0000E+00
 Upstream pipe        3.4116E+01 0.0000E+00 3.1309E+01 2.1871E+02 3.6000E+01 0.0000E+00
 Near pipe            3.4114E+01 0.0000E+00 3.1305E+01 2.1873E+02 3.6000E+01 0.0000E+00
 Far field            3.4114E+01 0.0000E+00 3.1305E+01 2.1873E+02 3.6000E+01 0.0000E+00
 SWT_Normal           3.4114E+01 0.0000E+00 3.1305E+01 2.1873E+02 3.6000E+01 0.0000E+00
 
  11.11% Completed


 DUMP OF INTERMEDIATE RESULTS IN SELECTED SEGMENTS
  TIME =   0D 16H  0M  0S .
 
 TOTAL MASS IN SYSTEM 1.7926E+04 0.0000E+00 1.6339E+04 1.1607E+05 1.8999E+04 0.0000E+00
 CHANGES BY PROCESSES-6.6265E+01 0.0000E+00-1.5728E+02 5.6974E+02 0.0000E+00 0.0000E+00
 CHANGES BY LOADS     0.0000E+00 0.0000E+00 0.0000E+00 0.0000E+00 0.0000E+00 0.0000E+00
 BOUNDARY INFLOWS     3.6000E+01 0.0000E+00 3.6000E+01 1.9800E+02 3.6000E+01 0.0000E+00
 BOUNDARY OUTFLOWS    3.3988E+01 0.0000E+00 3.1007E+01 2.1981E+02 3.6000E+01 0.0000E+00
                      NH4        CBOD5      CBOD5_2    OXY        Continuity SOD        
                                                                                        
 CONCENTRATION                           
 Start                9.4690E-01 0.0000E+00 8.6814E-01 6.0774E+00 1.0000E+00 0.0000E+00
 Upstream pipe        9.4274E-01 0.0000E+00 8.5803E-01 6.1176E+00 1.0000E+00 0.0000E+00
 Near pipe            9.4267E-01 0.0000E+00 8.5787E-01 6.1182E+00 1.0000E+00 0.0000E+00
 Far field            9.4267E-01 0.0000E+00 8.5786E-01 6.1182E+00 1.0000E+00 0.0000E+00
 SWT_Normal           9.4354E-01 0.0000E+00 8.5999E-01 6.1096E+00 1.0000E+00 0.0000E+00
 MASS                                    
 Start                9.4683E+02 0.0000E+00 8.6808E+02 6.0770E+03 9.9993E+02 0.0000E+00
 Upstream pipe        9.4267E+02 0.0000E+00 8.5797E+02 6.1171E+03 9.9993E+02 0.0000E+00
 Near pipe            9.4260E+02 0.0000E+00 8.5780E+02 6.1177E+03 9.9993E+02 0.0000E+00
 Far field            9.4260E+02 0.0000E+00 8.5780E+02 6.1177E+03 9.9992E+02 0.0000E+00
 SWT_Normal           1.7926E+04 0.0000E+00 1.6339E+04 1.1607E+05 1.8999E+04 0.0000E+00
 PROCESSES                               
 Start               -3.4989E+00 0.0000E+00-8.3486E+00 3.0964E+01 0.0000E+00 0.0000E+00
 Upstream pipe       -3.4849E+00 0.0000E+00-8.2602E+00 2.9734E+01 0.0000E+00 0.0000E+00
 Near pipe           -3.4847E+00 0.0000E+00-8.2589E+00 2.9716E+01 0.0000E+00 0.0000E+00
 Far field           -3.4847E+00 0.0000E+00-8.2589E+00 2.9715E+01 0.0000E+00 0.0000E+00
 SWT_Normal          -6.6265E+01 0.0000E+00-1.5728E+02 5.6974E+02 0.0000E+00 0.0000E+00
 LOADS ( IN )                            
 Start                0.0000E+00 0.0000E+00 0.0000E+00 0.0000E+00 0.0000E+00 0.0000E+00
 Upstream pipe        0.0000E+00 0.0000E+00 0.0000E+00 0.0000E+00 0.0000E+00 0.0000E+00
 Near pipe            0.0000E+00 0.0000E+00 0.0000E+00 0.0000E+00 0.0000E+00 0.0000E+00
 Far field            0.0000E+00 0.0000E+00 0.0000E+00 0.0000E+00 0.0000E+00 0.0000E+00
 SWT_Normal           0.0000E+00 0.0000E+00 0.0000E+00 0.0000E+00 0.0000E+00 0.0000E+00
 LOADS ( OUT )                           
 Start                0.0000E+00 0.0000E+00 0.0000E+00 0.0000E+00 0.0000E+00 0.0000E+00
 Upstream pipe        0.0000E+00 0.0000E+00 0.0000E+00 0.0000E+00 0.0000E+00 0.0000E+00
 Near pipe            0.0000E+00 0.0000E+00 0.0000E+00 0.0000E+00 0.0000E+00 0.0000E+00
 Far field            0.0000E+00 0.0000E+00 0.0000E+00 0.0000E+00 0.0000E+00 0.0000E+00
 SWT_Normal           0.0000E+00 0.0000E+00 0.0000E+00 0.0000E+00 0.0000E+00 0.0000E+00
 TRANSPORT ( IN )                        
 Start                3.4789E+01 0.0000E+00 3.2968E+01 2.1169E+02 3.6000E+01 0.0000E+00
 Upstream pipe        3.4008E+01 0.0000E+00 3.1055E+01 2.1963E+02 3.6000E+01 0.0000E+00
 Near pipe            3.3989E+01 0.0000E+00 3.1007E+01 2.1981E+02 3.6000E+01 0.0000E+00
 Far field            3.3988E+01 0.0000E+00 3.1007E+01 2.1981E+02 3.6000E+01 0.0000E+00
 SWT_Normal           3.6000E+01 0.0000E+00 3.6000E+01 1.9800E+02 3.6000E+01 0.0000E+00
 TRANSPORT ( OUT )                       
 Start                3.4131E+01 0.0000E+00 3.1353E+01 2.1843E+02 3.6000E+01 0.0000E+00
 Upstream pipe        3.3991E+01 0.0000E+00 3.1012E+01 2.1979E+02 3.6000E+01 0.0000E+00
 Near pipe            3.3988E+01 0.0000E+00 3.1007E+01 2.1981E+02 3.6000E+01 0.0000E+00
 Far field            3.3988E+01 0.0000E+00 3.1007E+01 2.1981E+02 3.6000E+01 0.0000E+00
 SWT_Normal           3.3988E+01 0.0000E+00 3.1007E+01 2.1981E+02 3.6000E+01 0.0000E+00
 
  11.81% Completed


 DUMP OF INTERMEDIATE RESULTS IN SELECTED SEGMENTS
  TIME =   0D 17H  0M  0S .
 
 TOTAL MASS IN SYSTEM 1.7862E+04 0.0000E+00 1.6188E+04 1.1660E+05 1.8999E+04 0.0000E+00
 CHANGES BY PROCESSES-6.6029E+01 0.0000E+00-1.5583E+02 5.5202E+02 0.0000E+00 0.0000E+00
 CHANGES BY LOADS     0.0000E+00 0.0000E+00 0.0000E+00 0.0000E+00 0.0000E+00 0.0000E+00
 BOUNDARY INFLOWS     3.6000E+01 0.0000E+00 3.6000E+01 1.9800E+02 3.6000E+01 0.0000E+00
 BOUNDARY OUTFLOWS    3.3863E+01 0.0000E+00 3.0711E+01 2.2086E+02 3.6000E+01 0.0000E+00
                      NH4        CBOD5      CBOD5_2    OXY        Continuity SOD        
                                                                                        
 CONCENTRATION                           
 Start                9.4414E-01 0.0000E+00 8.6162E-01 6.1004E+00 1.0000E+00 0.0000E+00
 Upstream pipe        9.3929E-01 0.0000E+00 8.4990E-01 6.1461E+00 1.0000E+00 0.0000E+00
 Near pipe            9.3920E-01 0.0000E+00 8.4969E-01 6.1470E+00 1.0000E+00 0.0000E+00
 Far field            9.3920E-01 0.0000E+00 8.4968E-01 6.1470E+00 1.0000E+00 0.0000E+00
 SWT_Normal           9.4018E-01 0.0000E+00 8.5206E-01 6.1374E+00 1.0000E+00 0.0000E+00
 MASS                                    
 Start                9.4407E+02 0.0000E+00 8.6155E+02 6.0999E+03 9.9993E+02 0.0000E+00
 Upstream pipe        9.3922E+02 0.0000E+00 8.4984E+02 6.1457E+03 9.9993E+02 0.0000E+00
 Near pipe            9.3913E+02 0.0000E+00 8.4962E+02 6.1465E+03 9.9993E+02 0.0000E+00
 Far field            9.3913E+02 0.0000E+00 8.4962E+02 6.1465E+03 9.9992E+02 0.0000E+00
 SWT_Normal           1.7862E+04 0.0000E+00 1.6188E+04 1.1660E+05 1.8999E+04 0.0000E+00
 PROCESSES                               
 Start               -3.4885E+00 0.0000E+00-8.2850E+00 3.0187E+01 0.0000E+00 0.0000E+00
 Upstream pipe       -3.4721E+00 0.0000E+00-8.1819E+00 2.8777E+01 0.0000E+00 0.0000E+00
 Near pipe           -3.4718E+00 0.0000E+00-8.1801E+00 2.8754E+01 0.0000E+00 0.0000E+00
 Far field           -3.4718E+00 0.0000E+00-8.1801E+00 2.8754E+01 0.0000E+00 0.0000E+00
 SWT_Normal          -6.6029E+01 0.0000E+00-1.5583E+02 5.5202E+02 0.0000E+00 0.0000E+00
 LOADS ( IN )                            
 Start                0.0000E+00 0.0000E+00 0.0000E+00 0.0000E+00 0.0000E+00 0.0000E+00
 Upstream pipe        0.0000E+00 0.0000E+00 0.0000E+00 0.0000E+00 0.0000E+00 0.0000E+00
 Near pipe            0.0000E+00 0.0000E+00 0.0000E+00 0.0000E+00 0.0000E+00 0.0000E+00
 Far field            0.0000E+00 0.0000E+00 0.0000E+00 0.0000E+00 0.0000E+00 0.0000E+00
 SWT_Normal           0.0000E+00 0.0000E+00 0.0000E+00 0.0000E+00 0.0000E+00 0.0000E+00
 LOADS ( OUT )                           
 Start                0.0000E+00 0.0000E+00 0.0000E+00 0.0000E+00 0.0000E+00 0.0000E+00
 Upstream pipe        0.0000E+00 0.0000E+00 0.0000E+00 0.0000E+00 0.0000E+00 0.0000E+00
 Near pipe            0.0000E+00 0.0000E+00 0.0000E+00 0.0000E+00 0.0000E+00 0.0000E+00
 Far field            0.0000E+00 0.0000E+00 0.0000E+00 0.0000E+00 0.0000E+00 0.0000E+00
 SWT_Normal           0.0000E+00 0.0000E+00 0.0000E+00 0.0000E+00 0.0000E+00 0.0000E+00
 TRANSPORT ( IN )                        
 Start                3.4749E+01 0.0000E+00 3.2875E+01 2.1202E+02 3.6000E+01 0.0000E+00
 Upstream pipe        3.3888E+01 0.0000E+00 3.0770E+01 2.2064E+02 3.6000E+01 0.0000E+00
 Near pipe            3.3863E+01 0.0000E+00 3.0712E+01 2.2086E+02 3.6000E+01 0.0000E+00
 Far field            3.3863E+01 0.0000E+00 3.0711E+01 2.2086E+02 3.6000E+01 0.0000E+00
 SWT_Normal           3.6000E+01 0.0000E+00 3.6000E+01 1.9800E+02 3.6000E+01 0.0000E+00
 TRANSPORT ( OUT )                       
 Start                3.4030E+01 0.0000E+00 3.1115E+01 2.1927E+02 3.6000E+01 0.0000E+00
 Upstream pipe        3.3866E+01 0.0000E+00 3.0718E+01 2.2084E+02 3.6000E+01 0.0000E+00
 Near pipe            3.3863E+01 0.0000E+00 3.0711E+01 2.2086E+02 3.6000E+01 0.0000E+00
 Far field            3.3863E+01 0.0000E+00 3.0711E+01 2.2086E+02 3.6000E+01 0.0000E+00
 SWT_Normal           3.3863E+01 0.0000E+00 3.0711E+01 2.2086E+02 3.6000E+01 0.0000E+00
 
1
                                             Water quality calculation Sobek-WQ      
                                                                                     
                                                                              mass/m2
                                             T0: 2010.01.01 00:00:00  (scu=       1s)
  12.50% Completed


 DUMP OF INTERMEDIATE RESULTS IN SELECTED SEGMENTS
  TIME =   0D 18H  0M  0S .
 
 TOTAL MASS IN SYSTEM 1.7798E+04 0.0000E+00 1.6039E+04 1.1711E+05 1.8999E+04 0.0000E+00
 CHANGES BY PROCESSES-6.5794E+01 0.0000E+00-1.5439E+02 5.3496E+02 0.0000E+00 0.0000E+00
 CHANGES BY LOADS     0.0000E+00 0.0000E+00 0.0000E+00 0.0000E+00 0.0000E+00 0.0000E+00
[...]
 Upstream pipe       -2.6704E+00 0.0000E+00-4.2930E+00 6.0763E+00 0.0000E+00 0.0000E+00
 Near pipe           -2.5326E+00-3.0418E+00-5.2013E+00 4.3573E+00 0.0000E+00 0.0000E+00
 Far field           -2.2052E+00-2.1567E-04-2.5173E+00 1.9616E+00 0.0000E+00 0.0000E+00
 SWT_Normal          -4.6642E+01-2.4914E+01-7.8916E+01 9.7458E+01 0.0000E+00 0.0000E+00
 LOADS ( IN )                            
 Start                0.0000E+00 0.0000E+00 0.0000E+00 0.0000E+00 0.0000E+00 0.0000E+00
 Upstream pipe        0.0000E+00 0.0000E+00 0.0000E+00 0.0000E+00 0.0000E+00 0.0000E+00
 Near pipe            0.0000E+00 0.0000E+00 0.0000E+00 0.0000E+00 0.0000E+00 0.0000E+00
 Far field            0.0000E+00 0.0000E+00 0.0000E+00 0.0000E+00 0.0000E+00 0.0000E+00
 SWT_Normal           0.0000E+00 0.0000E+00 0.0000E+00 0.0000E+00 0.0000E+00 0.0000E+00
 LOADS ( OUT )                           
 Start                0.0000E+00 0.0000E+00 0.0000E+00 0.0000E+00 0.0000E+00 0.0000E+00
 Upstream pipe        0.0000E+00 0.0000E+00 0.0000E+00 0.0000E+00 0.0000E+00 0.0000E+00
 Near pipe            0.0000E+00 0.0000E+00 0.0000E+00 0.0000E+00 0.0000E+00 0.0000E+00
 Far field            0.0000E+00 0.0000E+00 0.0000E+00 0.0000E+00 0.0000E+00 0.0000E+00
 SWT_Normal           0.0000E+00 0.0000E+00 0.0000E+00 0.0000E+00 0.0000E+00 0.0000E+00
 TRANSPORT ( IN )                        
 Start                3.4246E+01 0.0000E+00 3.1775E+01 2.1506E+02 3.6000E+01 0.0000E+00
 Upstream pipe        2.8333E+01 0.0000E+00 1.9981E+01 2.4332E+02 3.6000E+01 0.0000E+00
 Near pipe            2.4808E+01 2.1511E+00 1.5823E+01 2.5063E+02 3.6000E+01 0.0000E+00
 Far field            2.1509E+01 2.1234E-03 9.4527E+00 2.5629E+02 3.6000E+01 0.0000E+00
 SWT_Normal           3.6000E+01 0.0000E+00 3.6000E+01 1.9800E+02 3.6000E+01 0.0000E+00
 TRANSPORT ( OUT )                       
 Start                3.1089E+01 0.0000E+00 2.5127E+01 2.3327E+02 3.6000E+01 0.0000E+00
 Upstream pipe        2.6060E+01 0.0000E+00 1.6140E+01 2.4905E+02 3.6000E+01 0.0000E+00
 Near pipe            2.4703E+01 7.0644E+00 1.9505E+01 2.4858E+02 3.6000E+01 0.0000E+00
 Far field            2.1509E+01 5.1263E-04 9.4509E+00 2.5629E+02 3.6000E+01 0.0000E+00
 SWT_Normal           2.1509E+01 1.9066E-04 9.4505E+00 2.5629E+02 3.6000E+01 0.0000E+00
 
1
                                             Water quality calculation Sobek-WQ      
                                                                                     
                                                                              mass/m2
                                             T0: 2010.01.01 00:00:00  (scu=       1s)
  97.92% Completed


 DUMP OF INTERMEDIATE RESULTS IN SELECTED SEGMENTS
  TIME =   5D 21H  0M  0S .
 
 TOTAL MASS IN SYSTEM 1.2593E+04 1.5790E+03 8.1602E+03 1.3203E+05 1.8999E+04 0.0000E+00
 CHANGES BY PROCESSES-4.6523E+01-2.4533E+01-7.8417E+01 9.7168E+01 0.0000E+00 0.0000E+00
 CHANGES BY LOADS     0.0000E+00 0.0000E+00 0.0000E+00 0.0000E+00 0.0000E+00 0.0000E+00
 BOUNDARY INFLOWS     3.6000E+01 0.0000E+00 3.6000E+01 1.9800E+02 3.6000E+01 0.0000E+00
 BOUNDARY OUTFLOWS    2.1429E+01 2.1207E-04 9.3604E+00 2.5636E+02 3.6000E+01 0.0000E+00
                      NH4        CBOD5      CBOD5_2    OXY        Continuity SOD        
                                                                                        
 CONCENTRATION                           
 Start                8.6356E-01 0.0000E+00 6.9791E-01 6.4798E+00 1.0000E+00 0.0000E+00
 Upstream pipe        7.2333E-01 0.0000E+00 4.4772E-01 6.9185E+00 1.0000E+00 0.0000E+00
 Near pipe            6.8280E-01 1.8528E-01 5.2951E-01 6.9140E+00 1.0000E+00 0.0000E+00
 Far field            5.9435E-01 1.6345E-05 2.5899E-01 7.1219E+00 1.0000E+00 0.0000E+00
 SWT_Normal           6.6284E-01 8.3110E-02 4.2952E-01 6.9493E+00 1.0000E+00 0.0000E+00
 MASS                                    
 Start                8.6349E+02 0.0000E+00 6.9786E+02 6.4793E+03 9.9993E+02 0.0000E+00
 Upstream pipe        7.2327E+02 0.0000E+00 4.4769E+02 6.9180E+03 9.9993E+02 0.0000E+00
 Near pipe            6.8275E+02 1.8527E+02 5.2947E+02 6.9135E+03 9.9993E+02 0.0000E+00
 Far field            5.9430E+02 1.6343E-02 2.5897E+02 7.1214E+03 9.9992E+02 0.0000E+00
 SWT_Normal           1.2593E+04 1.5790E+03 8.1602E+03 1.3203E+05 1.8999E+04 0.0000E+00
 PROCESSES                               
 Start               -3.1854E+00 0.0000E+00-6.6817E+00 1.8237E+01 0.0000E+00 0.0000E+00
 Upstream pipe       -2.6689E+00 0.0000E+00-4.2887E+00 6.0728E+00 0.0000E+00 0.0000E+00
 Near pipe           -2.5237E+00-2.9212E+00-5.1173E+00 4.3096E+00 0.0000E+00 0.0000E+00
 Far field           -2.1971E+00-2.3791E-04-2.4933E+00 1.9422E+00 0.0000E+00 0.0000E+00
 SWT_Normal          -4.6523E+01-2.4533E+01-7.8417E+01 9.7168E+01 0.0000E+00 0.0000E+00
 LOADS ( IN )                            
 Start                0.0000E+00 0.0000E+00 0.0000E+00 0.0000E+00 0.0000E+00 0.0000E+00
 Upstream pipe        0.0000E+00 0.0000E+00 0.0000E+00 0.0000E+00 0.0000E+00 0.0000E+00
 Near pipe            0.0000E+00 0.0000E+00 0.0000E+00 0.0000E+00 0.0000E+00 0.0000E+00
 Far field            0.0000E+00 0.0000E+00 0.0000E+00 0.0000E+00 0.0000E+00 0.0000E+00
 SWT_Normal           0.0000E+00 0.0000E+00 0.0000E+00 0.0000E+00 0.0000E+00 0.0000E+00
 LOADS ( OUT )                           
 Start                0.0000E+00 0.0000E+00 0.0000E+00 0.0000E+00 0.0000E+00 0.0000E+00
 Upstream pipe        0.0000E+00 0.0000E+00 0.0000E+00 0.0000E+00 0.0000E+00 0.0000E+00
 Near pipe            0.0000E+00 0.0000E+00 0.0000E+00 0.0000E+00 0.0000E+00 0.0000E+00
 Far field            0.0000E+00 0.0000E+00 0.0000E+00 0.0000E+00 0.0000E+00 0.0000E+00
 SWT_Normal           0.0000E+00 0.0000E+00 0.0000E+00 0.0000E+00 0.0000E+00 0.0000E+00
 TRANSPORT ( IN )                        
 Start                3.4246E+01 0.0000E+00 3.1775E+01 2.1506E+02 3.6000E+01 0.0000E+00
 Upstream pipe        2.8328E+01 0.0000E+00 1.9975E+01 2.4333E+02 3.6000E+01 0.0000E+00
 Near pipe            2.4762E+01 2.0435E+00 1.5686E+01 2.5073E+02 3.6000E+01 0.0000E+00
 Far field            2.1430E+01 2.3173E-03 9.3628E+00 2.5636E+02 3.6000E+01 0.0000E+00
 SWT_Normal           3.6000E+01 0.0000E+00 3.6000E+01 1.9800E+02 3.6000E+01 0.0000E+00
 TRANSPORT ( OUT )                       
 Start                3.1088E+01 0.0000E+00 2.5125E+01 2.3327E+02 3.6000E+01 0.0000E+00
 Upstream pipe        2.6046E+01 0.0000E+00 1.6124E+01 2.4906E+02 3.6000E+01 0.0000E+00
 Near pipe            2.4616E+01 6.7842E+00 1.9191E+01 2.4881E+02 3.6000E+01 0.0000E+00
 Far field            2.1429E+01 5.6534E-04 9.3608E+00 2.5636E+02 3.6000E+01 0.0000E+00
 SWT_Normal           2.1429E+01 2.1207E-04 9.3604E+00 2.5636E+02 3.6000E+01 0.0000E+00
 
  98.61% Completed


 DUMP OF INTERMEDIATE RESULTS IN SELECTED SEGMENTS
  TIME =   5D 22H  0M  0S .
 
 TOTAL MASS IN SYSTEM 1.2561E+04 1.5548E+03 8.1090E+03 1.3207E+05 1.8999E+04 0.0000E+00
 CHANGES BY PROCESSES-4.6406E+01-2.4158E+01-7.7923E+01 9.6881E+01 0.0000E+00 0.0000E+00
 CHANGES BY LOADS     0.0000E+00 0.0000E+00 0.0000E+00 0.0000E+00 0.0000E+00 0.0000E+00
 BOUNDARY INFLOWS     3.6000E+01 0.0000E+00 3.6000E+01 1.9800E+02 3.6000E+01 0.0000E+00
 BOUNDARY OUTFLOWS    2.1350E+01 2.3549E-04 9.2712E+00 2.5643E+02 3.6000E+01 0.0000E+00
                      NH4        CBOD5      CBOD5_2    OXY        Continuity SOD        
                                                                                        
 CONCENTRATION                           
 Start                8.6353E-01 0.0000E+00 6.9788E-01 6.4798E+00 1.0000E+00 0.0000E+00
 Upstream pipe        7.2295E-01 0.0000E+00 4.4730E-01 6.9188E+00 1.0000E+00 0.0000E+00
 Near pipe            6.8047E-01 1.7790E-01 5.2115E-01 6.9201E+00 1.0000E+00 0.0000E+00
 Far field            5.9216E-01 1.7986E-05 2.5652E-01 7.1238E+00 1.0000E+00 0.0000E+00
 SWT_Normal           6.6117E-01 8.1838E-02 4.2682E-01 6.9513E+00 1.0000E+00 0.0000E+00
 MASS                                    
 Start                8.6346E+02 0.0000E+00 6.9783E+02 6.4793E+03 9.9993E+02 0.0000E+00
 Upstream pipe        7.2290E+02 0.0000E+00 4.4726E+02 6.9183E+03 9.9993E+02 0.0000E+00
 Near pipe            6.8042E+02 1.7789E+02 5.2111E+02 6.9196E+03 9.9993E+02 0.0000E+00
 Far field            5.9212E+02 1.7984E-02 2.5650E+02 7.1233E+03 9.9992E+02 0.0000E+00
 SWT_Normal           1.2561E+04 1.5548E+03 8.1090E+03 1.3207E+05 1.8999E+04 0.0000E+00
 PROCESSES                               
 Start               -3.1853E+00 0.0000E+00-6.6814E+00 1.8237E+01 0.0000E+00 0.0000E+00
 Upstream pipe       -2.6675E+00 0.0000E+00-4.2846E+00 6.0695E+00 0.0000E+00 0.0000E+00
 Near pipe           -2.5150E+00-2.8051E+00-5.0357E+00 4.2624E+00 0.0000E+00 0.0000E+00
 Far field           -2.1890E+00-2.6202E-04-2.4696E+00 1.9232E+00 0.0000E+00 0.0000E+00
 SWT_Normal          -4.6406E+01-2.4158E+01-7.7923E+01 9.6881E+01 0.0000E+00 0.0000E+00
 LOADS ( IN )                            
 Start                0.0000E+00 0.0000E+00 0.0000E+00 0.0000E+00 0.0000E+00 0.0000E+00
 Upstream pipe        0.0000E+00 0.0000E+00 0.0000E+00 0.0000E+00 0.0000E+00 0.0000E+00
 Near pipe            0.0000E+00 0.0000E+00 0.0000E+00 0.0000E+00 0.0000E+00 0.0000E+00
 Far field            0.0000E+00 0.0000E+00 0.0000E+00 0.0000E+00 0.0000E+00 0.0000E+00
 SWT_Normal           0.0000E+00 0.0000E+00 0.0000E+00 0.0000E+00 0.0000E+00 0.0000E+00
 LOADS ( OUT )                           
 Start                0.0000E+00 0.0000E+00 0.0000E+00 0.0000E+00 0.0000E+00 0.0000E+00
 Upstream pipe        0.0000E+00 0.0000E+00 0.0000E+00 0.0000E+00 0.0000E+00 0.0000E+00
 Near pipe            0.0000E+00 0.0000E+00 0.0000E+00 0.0000E+00 0.0000E+00 0.0000E+00
 Far field            0.0000E+00 0.0000E+00 0.0000E+00 0.0000E+00 0.0000E+00 0.0000E+00
 SWT_Normal           0.0000E+00 0.0000E+00 0.0000E+00 0.0000E+00 0.0000E+00 0.0000E+00
 TRANSPORT ( IN )                        
 Start                3.4246E+01 0.0000E+00 3.1775E+01 2.1506E+02 3.6000E+01 0.0000E+00
 Upstream pipe        2.8323E+01 0.0000E+00 1.9969E+01 2.4333E+02 3.6000E+01 0.0000E+00
 Near pipe            2.4718E+01 1.9413E+00 1.5554E+01 2.5083E+02 3.6000E+01 0.0000E+00
 Far field            2.1351E+01 2.5252E-03 9.2738E+00 2.5643E+02 3.6000E+01 0.0000E+00
 SWT_Normal           3.6000E+01 0.0000E+00 3.6000E+01 1.9800E+02 3.6000E+01 0.0000E+00
 TRANSPORT ( OUT )                       
 Start                3.1087E+01 0.0000E+00 2.5124E+01 2.3327E+02 3.6000E+01 0.0000E+00
 Upstream pipe        2.6032E+01 0.0000E+00 1.6109E+01 2.4907E+02 3.6000E+01 0.0000E+00
 Near pipe            2.4532E+01 6.5143E+00 1.8886E+01 2.4903E+02 3.6000E+01 0.0000E+00
 Far field            2.1351E+01 6.2248E-04 9.2716E+00 2.5643E+02 3.6000E+01 0.0000E+00
 SWT_Normal           2.1350E+01 2.3549E-04 9.2712E+00 2.5643E+02 3.6000E+01 0.0000E+00
 
  99.31% Completed


 DUMP OF INTERMEDIATE RESULTS IN SELECTED SEGMENTS
  TIME =   5D 23H  0M  0S .
 
 TOTAL MASS IN SYSTEM 1.2530E+04 1.5310E+03 8.0584E+03 1.3210E+05 1.8999E+04 0.0000E+00
 CHANGES BY PROCESSES-4.6289E+01-2.3788E+01-7.7435E+01 9.6595E+01 0.0000E+00 0.0000E+00
 CHANGES BY LOADS     0.0000E+00 0.0000E+00 0.0000E+00 0.0000E+00 0.0000E+00 0.0000E+00
 BOUNDARY INFLOWS     3.6000E+01 0.0000E+00 3.6000E+01 1.9800E+02 3.6000E+01 0.0000E+00
 BOUNDARY OUTFLOWS    2.1272E+01 2.6108E-04 9.1828E+00 2.5650E+02 3.6000E+01 0.0000E+00
                      NH4        CBOD5      CBOD5_2    OXY        Continuity SOD        
                                                                                        
 CONCENTRATION                           
 Start                8.6350E-01 0.0000E+00 6.9785E-01 6.4798E+00 1.0000E+00 0.0000E+00
 Upstream pipe        7.2258E-01 0.0000E+00 4.4688E-01 6.9191E+00 1.0000E+00 0.0000E+00
 Near pipe            6.7819E-01 1.7080E-01 5.1303E-01 6.9260E+00 1.0000E+00 0.0000E+00
 Far field            5.8998E-01 1.9761E-05 2.5408E-01 7.1257E+00 1.0000E+00 0.0000E+00
 SWT_Normal           6.5951E-01 8.0586E-02 4.2416E-01 6.9533E+00 1.0000E+00 0.0000E+00
 MASS                                    
 Start                8.6344E+02 0.0000E+00 6.9780E+02 6.4793E+03 9.9993E+02 0.0000E+00
 Upstream pipe        7.2253E+02 0.0000E+00 4.4685E+02 6.9186E+03 9.9993E+02 0.0000E+00
 Near pipe            6.7814E+02 1.7078E+02 5.1299E+02 6.9255E+03 9.9993E+02 0.0000E+00
 Far field            5.8993E+02 1.9760E-02 2.5406E+02 7.1252E+03 9.9992E+02 0.0000E+00
 SWT_Normal           1.2530E+04 1.5310E+03 8.0584E+03 1.3210E+05 1.8999E+04 0.0000E+00
 PROCESSES                               
 Start               -3.1852E+00 0.0000E+00-6.6811E+00 1.8237E+01 0.0000E+00 0.0000E+00
 Upstream pipe       -2.6661E+00 0.0000E+00-4.2806E+00 6.0663E+00 0.0000E+00 0.0000E+00
 Near pipe           -2.5065E+00-2.6933E+00-4.9566E+00 4.2159E+00 0.0000E+00 0.0000E+00
 Far field           -2.1809E+00-2.8814E-04-2.4460E+00 1.9046E+00 0.0000E+00 0.0000E+00
 SWT_Normal          -4.6289E+01-2.3788E+01-7.7435E+01 9.6595E+01 0.0000E+00 0.0000E+00
 LOADS ( IN )                            
 Start                0.0000E+00 0.0000E+00 0.0000E+00 0.0000E+00 0.0000E+00 0.0000E+00
 Upstream pipe        0.0000E+00 0.0000E+00 0.0000E+00 0.0000E+00 0.0000E+00 0.0000E+00
 Near pipe            0.0000E+00 0.0000E+00 0.0000E+00 0.0000E+00 0.0000E+00 0.0000E+00
 Far field            0.0000E+00 0.0000E+00 0.0000E+00 0.0000E+00 0.0000E+00 0.0000E+00
 SWT_Normal           0.0000E+00 0.0000E+00 0.0000E+00 0.0000E+00 0.0000E+00 0.0000E+00
 LOADS ( OUT )                           
 Start                0.0000E+00 0.0000E+00 0.0000E+00 0.0000E+00 0.0000E+00 0.0000E+00
 Upstream pipe        0.0000E+00 0.0000E+00 0.0000E+00 0.0000E+00 0.0000E+00 0.0000E+00
 Near pipe            0.0000E+00 0.0000E+00 0.0000E+00 0.0000E+00 0.0000E+00 0.0000E+00
 Far field            0.0000E+00 0.0000E+00 0.0000E+00 0.0000E+00 0.0000E+00 0.0000E+00
 SWT_Normal           0.0000E+00 0.0000E+00 0.0000E+00 0.0000E+00 0.0000E+00 0.0000E+00
 TRANSPORT ( IN )                        
 Start                3.4246E+01 0.0000E+00 3.1775E+01 2.1506E+02 3.6000E+01 0.0000E+00
 Upstream pipe        2.8318E+01 0.0000E+00 1.9964E+01 2.4334E+02 3.6000E+01 0.0000E+00
 Near pipe            2.4675E+01 1.8442E+00 1.5428E+01 2.5092E+02 3.6000E+01 0.0000E+00
 Far field            2.1272E+01 2.7479E-03 9.1857E+00 2.5650E+02 3.6000E+01 0.0000E+00
 SWT_Normal           3.6000E+01 0.0000E+00 3.6000E+01 1.9800E+02 3.6000E+01 0.0000E+00
 TRANSPORT ( OUT )                       
 Start                3.1086E+01 0.0000E+00 2.5123E+01 2.3327E+02 3.6000E+01 0.0000E+00
 Upstream pipe        2.6018E+01 0.0000E+00 1.6094E+01 2.4908E+02 3.6000E+01 0.0000E+00
 Near pipe            2.4449E+01 6.2545E+00 1.8590E+01 2.4925E+02 3.6000E+01 0.0000E+00
 Far field            2.1272E+01 6.8436E-04 9.1833E+00 2.5650E+02 3.6000E+01 0.0000E+00
 SWT_Normal           2.1272E+01 2.6108E-04 9.1828E+00 2.5650E+02 3.6000E+01 0.0000E+00
 

 REWIND ON       UNIT:  23, READING: ..\WORK\Area.dat
 AT SIMULATION TIME:    6D  0H  0M  0S !
 TIME IN FILE:          6D  0H  0M  0S !

 REWIND ON       UNIT:  24, READING: ..\WORK\Flow.dat
 AT SIMULATION TIME:    6D  0H  0M  0S !
 TIME IN FILE:          6D  0H  0M  0S !
1
                                             Water quality calculation Sobek-WQ      
                                                                                     
                                                                              mass/m2
                                             T0: 2010.01.01 00:00:00  (scu=       1s)
 100.00% Completed


 DUMP OF INTERMEDIATE RESULTS IN SELECTED SEGMENTS
  TIME =   6D  0H  0M  0S .
 
 TOTAL MASS IN SYSTEM 1.2498E+04 1.5076E+03 8.0084E+03 1.3214E+05 1.8999E+04 0.0000E+00
 CHANGES BY PROCESSES-4.6173E+01-2.3424E+01-7.6953E+01 9.6312E+01 0.0000E+00 0.0000E+00
 CHANGES BY LOADS     0.0000E+00 0.0000E+00 0.0000E+00 0.0000E+00 0.0000E+00 0.0000E+00
 BOUNDARY INFLOWS     3.6000E+01 0.0000E+00 3.6000E+01 1.9800E+02 3.6000E+01 0.0000E+00
 BOUNDARY OUTFLOWS    2.1194E+01 2.8899E-04 9.0953E+00 2.5657E+02 3.6000E+01 0.0000E+00
                      NH4        CBOD5      CBOD5_2    OXY        Continuity SOD        
                                                                                        
 CONCENTRATION                           
 Start                8.6348E-01 0.0000E+00 6.9783E-01 6.4798E+00 1.0000E+00 0.0000E+00
 Upstream pipe        7.2223E-01 0.0000E+00 4.4649E-01 6.9194E+00 1.0000E+00 0.0000E+00
 Near pipe            6.7596E-01 1.6396E-01 5.0515E-01 6.9317E+00 1.0000E+00 0.0000E+00
 Far field            5.8781E-01 2.1680E-05 2.5166E-01 7.1276E+00 1.0000E+00 0.0000E+00
 SWT_Normal           6.5786E-01 7.9353E-02 4.2152E-01 6.9553E+00 1.0000E+00 0.0000E+00
 MASS                                    
 Start                8.6341E+02 0.0000E+00 6.9777E+02 6.4794E+03 9.9993E+02 0.0000E+00
 Upstream pipe        7.2217E+02 0.0000E+00 4.4645E+02 6.9189E+03 9.9993E+02 0.0000E+00
 Near pipe            6.7591E+02 1.6395E+02 5.0511E+02 6.9312E+03 9.9993E+02 0.0000E+00
 Far field            5.8776E+02 2.1678E-02 2.5164E+02 7.1271E+03 9.9992E+02 0.0000E+00
 SWT_Normal           1.2498E+04 1.5076E+03 8.0084E+03 1.3214E+05 1.8999E+04 0.0000E+00
 PROCESSES                               
 Start               -3.1851E+00 0.0000E+00-6.6808E+00 1.8237E+01 0.0000E+00 0.0000E+00
 Upstream pipe       -2.6648E+00 0.0000E+00-4.2767E+00 6.0633E+00 0.0000E+00 0.0000E+00
 Near pipe           -2.4982E+00-2.5856E+00-4.8799E+00 4.1701E+00 0.0000E+00 0.0000E+00
 Far field           -2.1729E+00-3.1639E-04-2.4227E+00 1.8864E+00 0.0000E+00 0.0000E+00
 SWT_Normal          -4.6173E+01-2.3424E+01-7.6953E+01 9.6312E+01 0.0000E+00 0.0000E+00
 LOADS ( IN )                            
 Start                0.0000E+00 0.0000E+00 0.0000E+00 0.0000E+00 0.0000E+00 0.0000E+00
 Upstream pipe        0.0000E+00 0.0000E+00 0.0000E+00 0.0000E+00 0.0000E+00 0.0000E+00
 Near pipe            0.0000E+00 0.0000E+00 0.0000E+00 0.0000E+00 0.0000E+00 0.0000E+00
 Far field            0.0000E+00 0.0000E+00 0.0000E+00 0.0000E+00 0.0000E+00 0.0000E+00
 SWT_Normal           0.0000E+00 0.0000E+00 0.0000E+00 0.0000E+00 0.0000E+00 0.0000E+00
 LOADS ( OUT )                           
 Start                0.0000E+00 0.0000E+00 0.0000E+00 0.0000E+00 0.0000E+00 0.0000E+00
 Upstream pipe        0.0000E+00 0.0000E+00 0.0000E+00 0.0000E+00 0.0000E+00 0.0000E+00
 Near pipe            0.0000E+00 0.0000E+00 0.0000E+00 0.0000E+00 0.0000E+00 0.0000E+00
 Far field            0.0000E+00 0.0000E+00 0.0000E+00 0.0000E+00 0.0000E+00 0.0000E+00
 SWT_Normal           0.0000E+00 0.0000E+00 0.0000E+00 0.0000E+00 0.0000E+00 0.0000E+00
 TRANSPORT ( IN )                        
 Start                3.4246E+01 0.0000E+00 3.1775E+01 2.1506E+02 3.6000E+01 0.0000E+00
 Upstream pipe        2.8313E+01 0.0000E+00 1.9958E+01 2.4334E+02 3.6000E+01 0.0000E+00
 Near pipe            2.4633E+01 1.7519E+00 1.5307E+01 2.5101E+02 3.6000E+01 0.0000E+00
 Far field            2.1194E+01 2.9860E-03 9.0984E+00 2.5656E+02 3.6000E+01 0.0000E+00
 SWT_Normal           3.6000E+01 0.0000E+00 3.6000E+01 1.9800E+02 3.6000E+01 0.0000E+00
 TRANSPORT ( OUT )                       
 Start                3.1086E+01 0.0000E+00 2.5122E+01 2.3327E+02 3.6000E+01 0.0000E+00
 Upstream pipe        2.6005E+01 0.0000E+00 1.6079E+01 2.4909E+02 3.6000E+01 0.0000E+00
 Near pipe            2.4368E+01 6.0043E+00 1.8303E+01 2.4946E+02 3.6000E+01 0.0000E+00
 Far field            2.1194E+01 7.5126E-04 9.0958E+00 2.5657E+02 3.6000E+01 0.0000E+00
 SWT_Normal           2.1194E+01 2.8899E-04 9.0953E+00 2.5657E+02 3.6000E+01 0.0000E+00
 
 
 Simulation ended normal
 Execution stop : 2012/01/18 14:54:28 
