Ident  = #Delft3D-FLOW 3.56.29165#
Commnt =                  
Filcco = #str.grd#
Anglat =  0.0000000e+000
Grdang =  0.0000000e+000
Filgrd = #str.enc#
MNKmax = 102 22 1
Thick  =  1.0000000e+002
Commnt =                  
Fildep = #str.dep#
Commnt =                  
Commnt =                 no. dry points: 0
Commnt =                 no. thin dams: 0
Commnt =                  
Itdate = #2015-10-05#
Tunit  = #S#
Tstart = 0.0000000e+000
Tstop  = 240
Dt     = 6
Tzone  = 0
Commnt =                  
Sub1   = #   #
Sub2   = #   #
Commnt =                  
Wnsvwp = #N#
Wndint = #Y#
Commnt =                  
Zeta0  =  1.7000000e-001
I0     =  0.0000000e+000
Commnt =                  
Commnt =                 no. open boundaries: 2
Filbnd = #str.bnd#
FilbcT = #str.bct#
Commnt =                  
Ag     =  9.8100000e+000
Rhow   =  1.0000000e+003
Tempw  =  0.0000000e+000
Salw   =  0.0000000e+000
Wstres =  6.3000000e-004  0.0000000e+000  7.2300000e-003  1.0000000e+002  7.2300000e-003  1.0000000e+002
Rhoa   =  1.0000000e+000
Betac  =  0.0000000e+000
Equili = #N#
Ktemp  = 0
Fclou  =  0.0000000e+000
Sarea  =  0.0000000e+000
Temint = #Y#
Commnt =                  
Roumet = #C#
Ccofu  =  6.0000000e+001
Ccofv  =  6.0000000e+001
Xlo    =  0.0000000e+000
Vicouv =  0.0000000e+000
Dicouv =  0.0000000e+000
Htur2d = #N#
Irov   = 0
Commnt =                  
Iter   =      2
Dryflp = #YES#
Dpsopt = #DP#
Dpuopt = #MIN#
Dryflc =  1.0000000e-001
Dco    = -9.9900000e+002
Tlfsmo =  6.0000000e+001
ThetQH =  0.0000000e+000
Forfuv = #Y#
Forfww = #N#
Sigcor = #N#
Trasol = #Cyclic-method#
Momsol = #Cyclic#
Commnt =                  
Commnt =                 no. discharges: 0
Commnt =                 no. observation points: 3
Filsta = #str.obs#
Commnt =                 no. drogues: 0
Commnt =                  
Commnt =                  
Commnt =                 no. cross sections: 0
Commnt =                  
SMhydr = #YYYYY#     
SMderv = #YYYYYY#    
SMproc = #YYYYYYYYYY#
PMhydr = #YYYYYY#    
PMderv = #YYY#       
PMproc = #YYYYYYYYYY#
SHhydr = #YYYY#      
SHderv = #YYYYY#     
SHproc = #YYYYYYYYYY#
SHflux = #YYYY#      
PHhydr = #YYYYYY#    
PHderv = #YYY#       
PHproc = #YYYYYYYYYY#
PHflux = #YYYY#      
Flmap  =  0.0000000e+000 120  1.200000e+003
Flhis  =  0.0000000e+000 12  1.200000e+003
Flpp   =  0.0000000e+000 0  0.0000000e+000
Flrst  = 0
Commnt =                  
Online = #N#
Commnt =               
Filmor = #../shared/str.mor#
Filsed = #../shared/str.sed#
