  Using options from ini file : delwaq.ini
 Delft3D-WAQ version  4.5212 17-06-2011
 Only to be used by SOBEK licensee                          
 (c) Deltares
 Execution start: 2012/01/18 15:16:02 

 Parallel processing with   1 processor(s)

 total real      array space:       6151
 total integer   array space:       2677
 total character array space:       1759
 grand total in 4-byte words:      10587 =   0-GB   0-MB  42-KB 348-Byte.
1                    Water quality calculation Sobek-WQ      
                                                             

                                                             
                     T0: 2010.01.01 00:00:00  (scu=       1s)

                     Initialisation from system file completed.
 partit: noseg,nolay=          25           1 , nseghr=          25
 partit: npart=  1, assigning all segments to part "npart", none to other parts
 
 CONSTANT ON UNIT:        22, READING: delwaq-dispersi.wrk                                                                                                                                                                                                                                            
 SIMULATION TIME :    0D  0H  0M  0S ! 
 TIME IN FILE    :    0D  0H  0M  0S ! 
 CONSTANT ON UNIT:        26, READING: ..\WORK\Length.dat                                                                                                                                                                                                                                             
 SIMULATION TIME :    0D  0H  0M  0S ! 
 TIME IN FILE    :    0D  0H  0M  0S ! 
  Closure error correction disabled
 
 Initialising numerical options for method 15...18
 
 Preconditioner switch not found, using default
 switch = 3, corrections based on lower and upper 
 
 Maximum number of iterations not found, using default
 Maximum number of iterations set to :   100
 Maximum number of vectors is:    27
 
 Relative tolerance not found, using default
 Relative tolerance set to :0.100E-06
 
 Scaling switch not found, using default
 switch = 1, scaling is switched on
 
 Iteration report switch found in input
 switch = 0, iteration report is switched off
 
 Extra functionality DLWQTR
 End extra functionality DLWQTR
1
                                             Water quality calculation Sobek-WQ      
                                                                                     
                                                                                     
                                             T0: 2010.01.01 00:00:00  (scu=       1s)
   0.00% Completed


 DUMP OF INTERMEDIATE RESULTS IN SELECTED SEGMENTS
  TIME =   0D  0H  0M  0S .
 
 TOTAL MASS IN SYSTEM 5.8730E+03 5.8730E+03 0.0000E+00 0.0000E+00 0.0000E+00 0.0000E+00
 CHANGES BY PROCESSES 0.0000E+00 0.0000E+00 0.0000E+00 0.0000E+00 0.0000E+00 0.0000E+00
 CHANGES BY LOADS     0.0000E+00 0.0000E+00 0.0000E+00 0.0000E+00 0.0000E+00 0.0000E+00
 BOUNDARY INFLOWS     0.0000E+00 0.0000E+00 0.0000E+00 0.0000E+00 0.0000E+00 0.0000E+00
 BOUNDARY OUTFLOWS    0.0000E+00 0.0000E+00 0.0000E+00 0.0000E+00 0.0000E+00 0.0000E+00
                      Continuity cTR1       cTR2       cTR3       cTR4       cTR5       
                                                                                        
 CONCENTRATION                           
 End1                 1.0000E+00 1.0000E+00 0.0000E+00 0.0000E+00 0.0000E+00 0.0000E+00
 Near pipe            1.0000E+00 1.0000E+00 0.0000E+00 0.0000E+00 0.0000E+00 0.0000E+00
 Upstream pipe        1.0000E+00 1.0000E+00 0.0000E+00 0.0000E+00 0.0000E+00 0.0000E+00
 Start                1.0000E+00 1.0000E+00 0.0000E+00 0.0000E+00 0.0000E+00 0.0000E+00
 Far field            1.0000E+00 1.0000E+00 0.0000E+00 0.0000E+00 0.0000E+00 0.0000E+00
 Start2               1.0000E+00 1.0000E+00 0.0000E+00 0.0000E+00 0.0000E+00 0.0000E+00
 Start3               1.0000E+00 1.0000E+00 0.0000E+00 0.0000E+00 0.0000E+00 0.0000E+00
 After split          1.0000E+00 1.0000E+00 0.0000E+00 0.0000E+00 0.0000E+00 0.0000E+00
 SWT_Normal           1.0000E+00 1.0000E+00 0.0000E+00 0.0000E+00 0.0000E+00 0.0000E+00
 MASS                                    
 End1                 2.4987E+02 2.4987E+02 0.0000E+00 0.0000E+00 0.0000E+00 0.0000E+00
 Near pipe            2.4992E+02 2.4992E+02 0.0000E+00 0.0000E+00 0.0000E+00 0.0000E+00
 Upstream pipe        2.4992E+02 2.4992E+02 0.0000E+00 0.0000E+00 0.0000E+00 0.0000E+00
 Start                2.4992E+02 2.4992E+02 0.0000E+00 0.0000E+00 0.0000E+00 0.0000E+00
 Far field            2.4992E+02 2.4992E+02 0.0000E+00 0.0000E+00 0.0000E+00 0.0000E+00
 Start2               2.4987E+02 2.4987E+02 0.0000E+00 0.0000E+00 0.0000E+00 0.0000E+00
 Start3               2.4987E+02 2.4987E+02 0.0000E+00 0.0000E+00 0.0000E+00 0.0000E+00
 After split          2.4992E+02 2.4992E+02 0.0000E+00 0.0000E+00 0.0000E+00 0.0000E+00
 SWT_Normal           5.8730E+03 5.8730E+03 0.0000E+00 0.0000E+00 0.0000E+00 0.0000E+00
 PROCESSES                               
 End1                 0.0000E+00 0.0000E+00 0.0000E+00 0.0000E+00 0.0000E+00 0.0000E+00
 Near pipe            0.0000E+00 0.0000E+00 0.0000E+00 0.0000E+00 0.0000E+00 0.0000E+00
 Upstream pipe        0.0000E+00 0.0000E+00 0.0000E+00 0.0000E+00 0.0000E+00 0.0000E+00
 Start                0.0000E+00 0.0000E+00 0.0000E+00 0.0000E+00 0.0000E+00 0.0000E+00
 Far field            0.0000E+00 0.0000E+00 0.0000E+00 0.0000E+00 0.0000E+00 0.0000E+00
 Start2               0.0000E+00 0.0000E+00 0.0000E+00 0.0000E+00 0.0000E+00 0.0000E+00
 Start3               0.0000E+00 0.0000E+00 0.0000E+00 0.0000E+00 0.0000E+00 0.0000E+00
 After split          0.0000E+00 0.0000E+00 0.0000E+00 0.0000E+00 0.0000E+00 0.0000E+00
 SWT_Normal           0.0000E+00 0.0000E+00 0.0000E+00 0.0000E+00 0.0000E+00 0.0000E+00
 LOADS ( IN )                            
 End1                 0.0000E+00 0.0000E+00 0.0000E+00 0.0000E+00 0.0000E+00 0.0000E+00
 Near pipe            0.0000E+00 0.0000E+00 0.0000E+00 0.0000E+00 0.0000E+00 0.0000E+00
 Upstream pipe        0.0000E+00 0.0000E+00 0.0000E+00 0.0000E+00 0.0000E+00 0.0000E+00
 Start                0.0000E+00 0.0000E+00 0.0000E+00 0.0000E+00 0.0000E+00 0.0000E+00
 Far field            0.0000E+00 0.0000E+00 0.0000E+00 0.0000E+00 0.0000E+00 0.0000E+00
 Start2               0.0000E+00 0.0000E+00 0.0000E+00 0.0000E+00 0.0000E+00 0.0000E+00
 Start3               0.0000E+00 0.0000E+00 0.0000E+00 0.0000E+00 0.0000E+00 0.0000E+00
 After split          0.0000E+00 0.0000E+00 0.0000E+00 0.0000E+00 0.0000E+00 0.0000E+00
 SWT_Normal           0.0000E+00 0.0000E+00 0.0000E+00 0.0000E+00 0.0000E+00 0.0000E+00
 LOADS ( OUT )                           
 End1                 0.0000E+00 0.0000E+00 0.0000E+00 0.0000E+00 0.0000E+00 0.0000E+00
 Near pipe            0.0000E+00 0.0000E+00 0.0000E+00 0.0000E+00 0.0000E+00 0.0000E+00
 Upstream pipe        0.0000E+00 0.0000E+00 0.0000E+00 0.0000E+00 0.0000E+00 0.0000E+00
 Start                0.0000E+00 0.0000E+00 0.0000E+00 0.0000E+00 0.0000E+00 0.0000E+00
 Far field            0.0000E+00 0.0000E+00 0.0000E+00 0.0000E+00 0.0000E+00 0.0000E+00
 Start2               0.0000E+00 0.0000E+00 0.0000E+00 0.0000E+00 0.0000E+00 0.0000E+00
 Start3               0.0000E+00 0.0000E+00 0.0000E+00 0.0000E+00 0.0000E+00 0.0000E+00
 After split          0.0000E+00 0.0000E+00 0.0000E+00 0.0000E+00 0.0000E+00 0.0000E+00
 SWT_Normal           0.0000E+00 0.0000E+00 0.0000E+00 0.0000E+00 0.0000E+00 0.0000E+00
 TRANSPORT ( IN )                        
 End1                 0.0000E+00 0.0000E+00 0.0000E+00 0.0000E+00 0.0000E+00 0.0000E+00
 Near pipe            0.0000E+00 0.0000E+00 0.0000E+00 0.0000E+00 0.0000E+00 0.0000E+00
 Upstream pipe        0.0000E+00 0.0000E+00 0.0000E+00 0.0000E+00 0.0000E+00 0.0000E+00
 Start                0.0000E+00 0.0000E+00 0.0000E+00 0.0000E+00 0.0000E+00 0.0000E+00
 Far field            0.0000E+00 0.0000E+00 0.0000E+00 0.0000E+00 0.0000E+00 0.0000E+00
 Start2               0.0000E+00 0.0000E+00 0.0000E+00 0.0000E+00 0.0000E+00 0.0000E+00
 Start3               0.0000E+00 0.0000E+00 0.0000E+00 0.0000E+00 0.0000E+00 0.0000E+00
 After split          0.0000E+00 0.0000E+00 0.0000E+00 0.0000E+00 0.0000E+00 0.0000E+00
 SWT_Normal           0.0000E+00 0.0000E+00 0.0000E+00 0.0000E+00 0.0000E+00 0.0000E+00
 TRANSPORT ( OUT )                       
 End1                 0.0000E+00 0.0000E+00 0.0000E+00 0.0000E+00 0.0000E+00 0.0000E+00
 Near pipe            0.0000E+00 0.0000E+00 0.0000E+00 0.0000E+00 0.0000E+00 0.0000E+00
 Upstream pipe        0.0000E+00 0.0000E+00 0.0000E+00 0.0000E+00 0.0000E+00 0.0000E+00
 Start                0.0000E+00 0.0000E+00 0.0000E+00 0.0000E+00 0.0000E+00 0.0000E+00
 Far field            0.0000E+00 0.0000E+00 0.0000E+00 0.0000E+00 0.0000E+00 0.0000E+00
 Start2               0.0000E+00 0.0000E+00 0.0000E+00 0.0000E+00 0.0000E+00 0.0000E+00
 Start3               0.0000E+00 0.0000E+00 0.0000E+00 0.0000E+00 0.0000E+00 0.0000E+00
 After split          0.0000E+00 0.0000E+00 0.0000E+00 0.0000E+00 0.0000E+00 0.0000E+00
 SWT_Normal           0.0000E+00 0.0000E+00 0.0000E+00 0.0000E+00 0.0000E+00 0.0000E+00
 
   0.38% Completed


 DUMP OF INTERMEDIATE RESULTS IN SELECTED SEGMENTS
  TIME =   0D  1H  0M  0S .
 
 TOTAL MASS IN SYSTEM 5.8722E+03 5.7642E+03 1.0800E+02 1.3377E-14 1.3377E-14 0.0000E+00
 CHANGES BY PROCESSES 0.0000E+00 0.0000E+00 0.0000E+00 0.0000E+00 0.0000E+00 0.0000E+00
 CHANGES BY LOADS     0.0000E+00 0.0000E+00 0.0000E+00 0.0000E+00 0.0000E+00 0.0000E+00
 BOUNDARY INFLOWS     1.0800E+02 0.0000E+00 1.0800E+02 0.0000E+00 0.0000E+00 0.0000E+00
 BOUNDARY OUTFLOWS    1.0881E+02 1.0881E+02 7.4527E-17 1.5339E-16 1.5339E-16 0.0000E+00
                      Continuity cTR1       cTR2       cTR3       cTR4       cTR5       
                                                                                        
 CONCENTRATION                           
 End1                 1.0000E+00 1.0000E+00 7.5802E-09 3.9867E-18 3.9867E-18 0.0000E+00
 Near pipe            1.0000E+00 9.9994E-01 5.6902E-05 5.7214E-18 5.7214E-18 0.0000E+00
 Upstream pipe        1.0000E+00 9.9656E-01 3.4437E-03 5.1721E-19 5.1721E-19 0.0000E+00
 Start                1.0000E+00 8.7164E-01 1.2836E-01 2.2519E-18 2.2519E-18 0.0000E+00
 Far field            1.0000E+00 1.0000E+00 3.2910E-18 3.5390E-18 3.5390E-18 0.0000E+00
 Start2               1.0000E+00 1.0000E+00 7.4278E-10 9.4868E-20 9.4868E-20 0.0000E+00
 Start3               1.0000E+00 1.0000E+00 2.5252E-18 5.1721E-19 5.1721E-19 0.0000E+00
 After split          1.0000E+00 1.0000E+00 2.5252E-18 2.2519E-18 2.2519E-18 0.0000E+00
 SWT_Normal           1.0000E+00 9.8161E-01 1.8392E-02 2.2780E-18 2.2780E-18 0.0000E+00
 MASS                                    
 End1                 2.4983E+02 2.4983E+02 1.8938E-06 9.9598E-16 9.9598E-16 0.0000E+00
 Near pipe            2.4988E+02 2.4987E+02 1.4219E-02 1.4297E-15 1.4297E-15 0.0000E+00
 Upstream pipe        2.4988E+02 2.4902E+02 8.6052E-01 1.2924E-16 1.2924E-16 0.0000E+00
 Start                2.4989E+02 2.1781E+02 3.2076E+01 5.6274E-16 5.6274E-16 0.0000E+00
 Far field            2.4991E+02 2.4991E+02 8.2247E-16 8.8445E-16 8.8445E-16 0.0000E+00
 Start2               2.4983E+02 2.4983E+02 1.8557E-07 2.3701E-17 2.3701E-17 0.0000E+00
 Start3               2.4983E+02 2.4983E+02 6.3087E-16 1.2921E-16 1.2921E-16 0.0000E+00
 After split          2.4987E+02 2.4987E+02 6.3099E-16 5.6270E-16 5.6270E-16 0.0000E+00
 SWT_Normal           5.8722E+03 5.7642E+03 1.0800E+02 1.3377E-14 1.3377E-14 0.0000E+00
 PROCESSES                               
 End1                 0.0000E+00 0.0000E+00 0.0000E+00 0.0000E+00 0.0000E+00 0.0000E+00
 Near pipe            0.0000E+00 0.0000E+00 0.0000E+00 0.0000E+00 0.0000E+00 0.0000E+00
 Upstream pipe        0.0000E+00 0.0000E+00 0.0000E+00 0.0000E+00 0.0000E+00 0.0000E+00
 Start                0.0000E+00 0.0000E+00 0.0000E+00 0.0000E+00 0.0000E+00 0.0000E+00
 Far field            0.0000E+00 0.0000E+00 0.0000E+00 0.0000E+00 0.0000E+00 0.0000E+00
 Start2               0.0000E+00 0.0000E+00 0.0000E+00 0.0000E+00 0.0000E+00 0.0000E+00
 Start3               0.0000E+00 0.0000E+00 0.0000E+00 0.0000E+00 0.0000E+00 0.0000E+00
 After split          0.0000E+00 0.0000E+00 0.0000E+00 0.0000E+00 0.0000E+00 0.0000E+00
 SWT_Normal           0.0000E+00 0.0000E+00 0.0000E+00 0.0000E+00 0.0000E+00 0.0000E+00
 LOADS ( IN )                            
 End1                 0.0000E+00 0.0000E+00 0.0000E+00 0.0000E+00 0.0000E+00 0.0000E+00
 Near pipe            0.0000E+00 0.0000E+00 0.0000E+00 0.0000E+00 0.0000E+00 0.0000E+00
 Upstream pipe        0.0000E+00 0.0000E+00 0.0000E+00 0.0000E+00 0.0000E+00 0.0000E+00
 Start                0.0000E+00 0.0000E+00 0.0000E+00 0.0000E+00 0.0000E+00 0.0000E+00
 Far field            0.0000E+00 0.0000E+00 0.0000E+00 0.0000E+00 0.0000E+00 0.0000E+00
 Start2               0.0000E+00 0.0000E+00 0.0000E+00 0.0000E+00 0.0000E+00 0.0000E+00
 Start3               0.0000E+00 0.0000E+00 0.0000E+00 0.0000E+00 0.0000E+00 0.0000E+00
 After split          0.0000E+00 0.0000E+00 0.0000E+00 0.0000E+00 0.0000E+00 0.0000E+00
 SWT_Normal           0.0000E+00 0.0000E+00 0.0000E+00 0.0000E+00 0.0000E+00 0.0000E+00
 LOADS ( OUT )                           
 End1                 0.0000E+00 0.0000E+00 0.0000E+00 0.0000E+00 0.0000E+00 0.0000E+00
 Near pipe            0.0000E+00 0.0000E+00 0.0000E+00 0.0000E+00 0.0000E+00 0.0000E+00
 Upstream pipe        0.0000E+00 0.0000E+00 0.0000E+00 0.0000E+00 0.0000E+00 0.0000E+00
 Start                0.0000E+00 0.0000E+00 0.0000E+00 0.0000E+00 0.0000E+00 0.0000E+00
 Far field            0.0000E+00 0.0000E+00 0.0000E+00 0.0000E+00 0.0000E+00 0.0000E+00
 Start2               0.0000E+00 0.0000E+00 0.0000E+00 0.0000E+00 0.0000E+00 0.0000E+00
 Start3               0.0000E+00 0.0000E+00 0.0000E+00 0.0000E+00 0.0000E+00 0.0000E+00
 After split          0.0000E+00 0.0000E+00 0.0000E+00 0.0000E+00 0.0000E+00 0.0000E+00
 SWT_Normal           0.0000E+00 0.0000E+00 0.0000E+00 0.0000E+00 0.0000E+00 0.0000E+00
 TRANSPORT ( IN )                        
 End1                 1.0833E+02 1.0833E+02 2.0989E-06 3.8829E-16 3.8829E-16 0.0000E+00
 Near pipe            1.0816E+02 1.0814E+02 1.6057E-02 3.5641E-16 3.5641E-16 0.0000E+00
 Upstream pipe        1.0808E+02 1.0709E+02 9.9205E-01 2.6242E-16 2.6242E-16 0.0000E+00
 Start                1.0801E+02 6.9236E+01 3.8779E+01 2.3103E-16 2.3103E-16 0.0000E+00
 Far field            1.0880E+02 1.0880E+02 7.5942E-16 2.0204E-16 2.0204E-16 0.0000E+00
 Start2               1.0858E+02 1.0858E+02 2.0515E-07 3.8889E-16 3.8889E-16 0.0000E+00
 Start3               1.6310E-01 1.6310E-01 2.3274E-19 5.3749E-19 5.3749E-19 0.0000E+00
 After split          7.1073E-02 7.1073E-02 2.8181E-20 1.7257E-19 1.7257E-19 0.0000E+00
 SWT_Normal           1.0800E+02 0.0000E+00 1.0800E+02 0.0000E+00 0.0000E+00 0.0000E+00
 TRANSPORT ( OUT )                       
 End1                 1.0837E+02 1.0837E+02 2.0515E-07 3.8845E-16 3.8845E-16 0.0000E+00
 Near pipe            1.0820E+02 1.0819E+02 1.8384E-03 4.5040E-16 4.5040E-16 0.0000E+00
 Upstream pipe        1.0812E+02 1.0798E+02 1.3153E-01 2.9373E-16 2.9373E-16 0.0000E+00
 Start                1.0805E+02 1.0134E+02 6.7023E+00 3.5605E-16 3.5605E-16 0.0000E+00
 Far field            1.0881E+02 1.0881E+02 8.2123E-17 4.7613E-16 4.7613E-16 0.0000E+00
 Start2               1.0862E+02 1.0862E+02 1.9580E-08 8.8812E-17 8.8812E-17 0.0000E+00
 Start3               2.0691E-01 2.0691E-01 2.3542E-19 4.4255E-19 4.4255E-19 0.0000E+00
 After split          1.1767E-01 1.1767E-01 1.6791E-19 2.8571E-19 2.8571E-19 0.0000E+00
 SWT_Normal           1.0881E+02 1.0881E+02 7.4527E-17 1.5339E-16 1.5339E-16 0.0000E+00
 
1
                                             Water quality calculation Sobek-WQ      
                                                                                     
                                                                                     
                                             T0: 2010.01.01 00:00:00  (scu=       1s)
   0.76% Completed


 DUMP OF INTERMEDIATE RESULTS IN SELECTED SEGMENTS
  TIME =   0D  2H  0M  0S .
 
 TOTAL MASS IN SYSTEM 5.8740E+03 5.6580E+03 2.1600E+02 1.9665E-14 1.9665E-14 0.0000E+00
 CHANGES BY PROCESSES 0.0000E+00 0.0000E+00 0.0000E+00 0.0000E+00 0.0000E+00 0.0000E+00
 CHANGES BY LOADS     0.0000E+00 0.0000E+00 0.0000E+00 0.0000E+00 0.0000E+00 0.0000E+00
 BOUNDARY INFLOWS     1.0800E+02 0.0000E+00 1.0800E+02 0.0000E+00 0.0000E+00 0.0000E+00
 BOUNDARY OUTFLOWS    1.0622E+02 1.0622E+02 1.2235E-14 2.4973E-16 2.4973E-16 0.0000E+00
                      Continuity cTR1       cTR2       cTR3       cTR4       cTR5       
                                                                                        
 CONCENTRATION                           
 End1                 1.0000E+00 1.0000E+00 5.7115E-07 3.5383E-18 3.5383E-18 0.0000E+00
 Near pipe            1.0000E+00 9.9899E-01 1.0089E-03 3.5383E-18 3.5383E-18 0.0000E+00
 Upstream pipe        1.0000E+00 9.7490E-01 2.5099E-02 1.8036E-18 1.8036E-18 0.0000E+00
 Start                1.0000E+00 6.6928E-01 3.3072E-01 1.8036E-18 1.8036E-18 0.0000E+00
 Far field            1.0000E+00 1.0000E+00 2.2652E-15 3.8885E-18 3.8885E-18 0.0000E+00
 Start2               1.0000E+00 1.0000E+00 7.6033E-08 0.0000E+00 0.0000E+00 0.0000E+00
 Start3               1.0000E+00 1.0000E+00 3.1853E-10 3.0890E-18 3.0890E-18 0.0000E+00
 After split          1.0000E+00 1.0000E+00 3.0403E-17 3.8334E-18 3.8334E-18 0.0000E+00
 SWT_Normal           1.0000E+00 9.6323E-01 3.6772E-02 3.3479E-18 3.3479E-18 0.0000E+00
 MASS                                    
 End1                 2.4991E+02 2.4991E+02 1.4274E-04 8.8427E-16 8.8427E-16 0.0000E+00
 Near pipe            2.4998E+02 2.4973E+02 2.5221E-01 8.8451E-16 8.8451E-16 0.0000E+00
 Upstream pipe        2.4999E+02 2.4372E+02 6.2744E+00 4.5087E-16 4.5087E-16 0.0000E+00
 Start                2.5000E+02 1.6732E+02 8.2680E+01 4.5089E-16 4.5089E-16 0.0000E+00
 Far field            2.4993E+02 2.4993E+02 5.6615E-13 9.7183E-16 9.7183E-16 0.0000E+00
 Start2               2.4991E+02 2.4991E+02 1.9001E-05 0.0000E+00 0.0000E+00 0.0000E+00
 Start3               2.4991E+02 2.4991E+02 7.9605E-08 7.7198E-16 7.7198E-16 0.0000E+00
 After split          2.4996E+02 2.4996E+02 7.5997E-15 9.5820E-16 9.5820E-16 0.0000E+00
 SWT_Normal           5.8740E+03 5.6580E+03 2.1600E+02 1.9665E-14 1.9665E-14 0.0000E+00
 PROCESSES                               
 End1                 0.0000E+00 0.0000E+00 0.0000E+00 0.0000E+00 0.0000E+00 0.0000E+00
 Near pipe            0.0000E+00 0.0000E+00 0.0000E+00 0.0000E+00 0.0000E+00 0.0000E+00
 Upstream pipe        0.0000E+00 0.0000E+00 0.0000E+00 0.0000E+00 0.0000E+00 0.0000E+00
 Start                0.0000E+00 0.0000E+00 0.0000E+00 0.0000E+00 0.0000E+00 0.0000E+00
 Far field            0.0000E+00 0.0000E+00 0.0000E+00 0.0000E+00 0.0000E+00 0.0000E+00
 Start2               0.0000E+00 0.0000E+00 0.0000E+00 0.0000E+00 0.0000E+00 0.0000E+00
 Start3               0.0000E+00 0.0000E+00 0.0000E+00 0.0000E+00 0.0000E+00 0.0000E+00
 After split          0.0000E+00 0.0000E+00 0.0000E+00 0.0000E+00 0.0000E+00 0.0000E+00
 SWT_Normal           0.0000E+00 0.0000E+00 0.0000E+00 0.0000E+00 0.0000E+00 0.0000E+00
 LOADS ( IN )                            
 End1                 0.0000E+00 0.0000E+00 0.0000E+00 0.0000E+00 0.0000E+00 0.0000E+00
 Near pipe            0.0000E+00 0.0000E+00 0.0000E+00 0.0000E+00 0.0000E+00 0.0000E+00
 Upstream pipe        0.0000E+00 0.0000E+00 0.0000E+00 0.0000E+00 0.0000E+00 0.0000E+00
 Start                0.0000E+00 0.0000E+00 0.0000E+00 0.0000E+00 0.0000E+00 0.0000E+00
 Far field            0.0000E+00 0.0000E+00 0.0000E+00 0.0000E+00 0.0000E+00 0.0000E+00
 Start2               0.0000E+00 0.0000E+00 0.0000E+00 0.0000E+00 0.0000E+00 0.0000E+00
 Start3               0.0000E+00 0.0000E+00 0.0000E+00 0.0000E+00 0.0000E+00 0.0000E+00
 After split          0.0000E+00 0.0000E+00 0.0000E+00 0.0000E+00 0.0000E+00 0.0000E+00
 SWT_Normal           0.0000E+00 0.0000E+00 0.0000E+00 0.0000E+00 0.0000E+00 0.0000E+00
 LOADS ( OUT )                           
 End1                 0.0000E+00 0.0000E+00 0.0000E+00 0.0000E+00 0.0000E+00 0.0000E+00
 Near pipe            0.0000E+00 0.0000E+00 0.0000E+00 0.0000E+00 0.0000E+00 0.0000E+00
 Upstream pipe        0.0000E+00 0.0000E+00 0.0000E+00 0.0000E+00 0.0000E+00 0.0000E+00
 Start                0.0000E+00 0.0000E+00 0.0000E+00 0.0000E+00 0.0000E+00 0.0000E+00
 Far field            0.0000E+00 0.0000E+00 0.0000E+00 0.0000E+00 0.0000E+00 0.0000E+00
 Start2               0.0000E+00 0.0000E+00 0.0000E+00 0.0000E+00 0.0000E+00 0.0000E+00
 Start3               0.0000E+00 0.0000E+00 0.0000E+00 0.0000E+00 0.0000E+00 0.0000E+00
 After split          0.0000E+00 0.0000E+00 0.0000E+00 0.0000E+00 0.0000E+00 0.0000E+00
 SWT_Normal           0.0000E+00 0.0000E+00 0.0000E+00 0.0000E+00 0.0000E+00 0.0000E+00
 TRANSPORT ( IN )                        
 End1                 1.0714E+02 1.0714E+02 1.6248E-04 4.6223E-16 4.6223E-16 0.0000E+00
 Near pipe            1.0752E+02 1.0724E+02 2.8748E-01 3.3958E-16 3.3958E-16 0.0000E+00
 Upstream pipe        1.0773E+02 1.0081E+02 6.9214E+00 7.6352E-17 7.6352E-17 0.0000E+00
 Start                1.0795E+02 3.0859E+01 7.7087E+01 9.3141E-17 9.3141E-17 0.0000E+00
 Far field            1.0623E+02 1.0623E+02 6.3089E-13 4.6254E-16 4.6254E-16 0.0000E+00
 Start2               1.0666E+02 1.0666E+02 2.1558E-05 4.6015E-16 4.6015E-16 0.0000E+00
 Start3               3.9401E-01 3.9401E-01 7.9638E-08 1.6999E-18 1.6999E-18 0.0000E+00
 After split          2.2162E-01 2.2162E-01 8.9161E-15 3.5362E-19 3.5362E-19 0.0000E+00
 SWT_Normal           1.0800E+02 0.0000E+00 1.0800E+02 0.0000E+00 0.0000E+00 0.0000E+00
 TRANSPORT ( OUT )                       
 End1                 1.0705E+02 1.0705E+02 2.1638E-05 4.6185E-16 4.6185E-16 0.0000E+00
 Near pipe            1.0742E+02 1.0737E+02 4.9481E-02 4.3239E-16 4.3239E-16 0.0000E+00
 Upstream pipe        1.0763E+02 1.0612E+02 1.5075E+00 1.2398E-16 1.2398E-16 0.0000E+00
 Start                1.0784E+02 8.1356E+01 2.6483E+01 2.7821E-16 2.7821E-16 0.0000E+00
 Far field            1.0622E+02 1.0622E+02 6.5233E-14 5.2440E-16 5.2440E-16 0.0000E+00
 Start2               1.0658E+02 1.0658E+02 2.7420E-06 3.2619E-17 3.2619E-17 0.0000E+00
 Start3               3.0863E-01 3.0863E-01 3.2463E-11 8.0332E-19 8.0332E-19 0.0000E+00
 After split          1.3344E-01 1.3344E-01 1.2375E-18 5.3758E-19 5.3758E-19 0.0000E+00
 SWT_Normal           1.0622E+02 1.0622E+02 1.2235E-14 2.4973E-16 2.4973E-16 0.0000E+00
 
   1.14% Completed


 DUMP OF INTERMEDIATE RESULTS IN SELECTED SEGMENTS
  TIME =   0D  3H  0M  0S .
 
 TOTAL MASS IN SYSTEM 5.8740E+03 5.5500E+03 3.2400E+02 7.7257E-15 7.7257E-15 0.0000E+00
 CHANGES BY PROCESSES 0.0000E+00 0.0000E+00 0.0000E+00 0.0000E+00 0.0000E+00 0.0000E+00
 CHANGES BY LOADS     0.0000E+00 0.0000E+00 0.0000E+00 0.0000E+00 0.0000E+00 0.0000E+00
 BOUNDARY INFLOWS     1.0800E+02 0.0000E+00 1.0800E+02 0.0000E+00 0.0000E+00 0.0000E+00
 BOUNDARY OUTFLOWS    1.0801E+02 1.0801E+02 1.8733E-12 5.7211E-17 5.7211E-17 0.0000E+00
                      Continuity cTR1       cTR2       cTR3       cTR4       cTR5       
                                                                                        
 CONCENTRATION                           
 End1                 1.0000E+00 9.9999E-01 9.2056E-06 1.9414E-20 1.9414E-20 0.0000E+00
 Near pipe            1.0000E+00 9.9444E-01 5.5579E-03 1.9414E-20 1.9414E-20 0.0000E+00
 Upstream pipe        1.0000E+00 9.2477E-01 7.5228E-02 1.9414E-20 1.9414E-20 0.0000E+00
 Start                1.0000E+00 4.8333E-01 5.1667E-01 1.9414E-20 1.9414E-20 0.0000E+00
 Far field            1.0000E+00 1.0000E+00 2.4922E-13 9.3643E-19 9.3643E-19 0.0000E+00
 Start2               1.0000E+00 1.0000E+00 1.5667E-06 2.7308E-18 2.7308E-18 0.0000E+00
 Start3               1.0000E+00 1.0000E+00 3.1853E-10 1.7541E-18 1.7541E-18 0.0000E+00
 After split          1.0000E+00 1.0000E+00 2.9707E-17 1.7541E-18 1.7541E-18 0.0000E+00
 SWT_Normal           1.0000E+00 9.4484E-01 5.5159E-02 1.3153E-18 1.3153E-18 0.0000E+00
 MASS                                    
 End1                 2.4991E+02 2.4991E+02 2.3006E-03 4.8518E-18 4.8518E-18 0.0000E+00
 Near pipe            2.4998E+02 2.4859E+02 1.3894E+00 4.8531E-18 4.8531E-18 0.0000E+00
 Upstream pipe        2.4999E+02 2.3118E+02 1.8806E+01 4.8533E-18 4.8533E-18 0.0000E+00
 Start                2.5000E+02 1.2083E+02 1.2917E+02 4.8534E-18 4.8534E-18 0.0000E+00
 Far field            2.4993E+02 2.4993E+02 6.2287E-11 2.3404E-16 2.3404E-16 0.0000E+00
 Start2               2.4991E+02 2.4991E+02 3.9152E-04 6.8246E-16 6.8246E-16 0.0000E+00
 Start3               2.4991E+02 2.4991E+02 7.9605E-08 4.3838E-16 4.3838E-16 0.0000E+00
 After split          2.4996E+02 2.4996E+02 7.4256E-15 4.3847E-16 4.3847E-16 0.0000E+00
 SWT_Normal           5.8740E+03 5.5500E+03 3.2400E+02 7.7257E-15 7.7257E-15 0.0000E+00
 PROCESSES                               
 End1                 0.0000E+00 0.0000E+00 0.0000E+00 0.0000E+00 0.0000E+00 0.0000E+00
 Near pipe            0.0000E+00 0.0000E+00 0.0000E+00 0.0000E+00 0.0000E+00 0.0000E+00
 Upstream pipe        0.0000E+00 0.0000E+00 0.0000E+00 0.0000E+00 0.0000E+00 0.0000E+00
 Start                0.0000E+00 0.0000E+00 0.0000E+00 0.0000E+00 0.0000E+00 0.0000E+00
 Far field            0.0000E+00 0.0000E+00 0.0000E+00 0.0000E+00 0.0000E+00 0.0000E+00
 Start2               0.0000E+00 0.0000E+00 0.0000E+00 0.0000E+00 0.0000E+00 0.0000E+00
 Start3               0.0000E+00 0.0000E+00 0.0000E+00 0.0000E+00 0.0000E+00 0.0000E+00
 After split          0.0000E+00 0.0000E+00 0.0000E+00 0.0000E+00 0.0000E+00 0.0000E+00
 SWT_Normal           0.0000E+00 0.0000E+00 0.0000E+00 0.0000E+00 0.0000E+00 0.0000E+00
 LOADS ( IN )                            
 End1                 0.0000E+00 0.0000E+00 0.0000E+00 0.0000E+00 0.0000E+00 0.0000E+00
 Near pipe            0.0000E+00 0.0000E+00 0.0000E+00 0.0000E+00 0.0000E+00 0.0000E+00
 Upstream pipe        0.0000E+00 0.0000E+00 0.0000E+00 0.0000E+00 0.0000E+00 0.0000E+00
 Start                0.0000E+00 0.0000E+00 0.0000E+00 0.0000E+00 0.0000E+00 0.0000E+00
 Far field            0.0000E+00 0.0000E+00 0.0000E+00 0.0000E+00 0.0000E+00 0.0000E+00
 Start2               0.0000E+00 0.0000E+00 0.0000E+00 0.0000E+00 0.0000E+00 0.0000E+00
 Start3               0.0000E+00 0.0000E+00 0.0000E+00 0.0000E+00 0.0000E+00 0.0000E+00
 After split          0.0000E+00 0.0000E+00 0.0000E+00 0.0000E+00 0.0000E+00 0.0000E+00
 SWT_Normal           0.0000E+00 0.0000E+00 0.0000E+00 0.0000E+00 0.0000E+00 0.0000E+00
 LOADS ( OUT )                           
 End1                 0.0000E+00 0.0000E+00 0.0000E+00 0.0000E+00 0.0000E+00 0.0000E+00
 Near pipe            0.0000E+00 0.0000E+00 0.0000E+00 0.0000E+00 0.0000E+00 0.0000E+00
 Upstream pipe        0.0000E+00 0.0000E+00 0.0000E+00 0.0000E+00 0.0000E+00 0.0000E+00
 Start                0.0000E+00 0.0000E+00 0.0000E+00 0.0000E+00 0.0000E+00 0.0000E+00
 Far field            0.0000E+00 0.0000E+00 0.0000E+00 0.0000E+00 0.0000E+00 0.0000E+00
 Start2               0.0000E+00 0.0000E+00 0.0000E+00 0.0000E+00 0.0000E+00 0.0000E+00
 Start3               0.0000E+00 0.0000E+00 0.0000E+00 0.0000E+00 0.0000E+00 0.0000E+00
 After split          0.0000E+00 0.0000E+00 0.0000E+00 0.0000E+00 0.0000E+00 0.0000E+00
 SWT_Normal           0.0000E+00 0.0000E+00 0.0000E+00 0.0000E+00 0.0000E+00 0.0000E+00
 TRANSPORT ( IN )                        
 End1                 1.0800E+02 1.0800E+02 2.6023E-03 1.2686E-16 1.2686E-16 0.0000E+00
 Near pipe            1.0800E+02 1.0652E+02 1.4846E+00 6.4401E-17 6.4401E-17 0.0000E+00
 Upstream pipe        1.0800E+02 8.9860E+01 1.8142E+01 4.0371E-17 4.0371E-17 0.0000E+00
 Start                1.0800E+02 1.3773E+01 9.4228E+01 4.0370E-17 4.0370E-17 0.0000E+00
 Far field            1.0801E+02 1.0801E+02 7.0405E-11 8.4639E-18 8.4639E-18 0.0000E+00
 Start2               1.0801E+02 1.0801E+02 4.4447E-04 6.4405E-17 6.4405E-17 0.0000E+00
 Start3               1.4386E-03 1.4386E-03 1.8677E-16 1.3696E-21 1.3696E-21 0.0000E+00
 After split          6.0788E-04 6.0788E-04 3.4208E-22 3.6247E-22 3.6247E-22 0.0000E+00
 SWT_Normal           1.0800E+02 0.0000E+00 1.0800E+02 0.0000E+00 0.0000E+00 0.0000E+00
 TRANSPORT ( OUT )                       
 End1                 1.0801E+02 1.0800E+02 4.4447E-04 6.4403E-17 6.4403E-17 0.0000E+00
 Near pipe            1.0800E+02 1.0766E+02 3.4744E-01 6.4401E-17 6.4401E-17 0.0000E+00
 Upstream pipe        1.0800E+02 1.0239E+02 5.6103E+00 4.0371E-17 4.0371E-17 0.0000E+00
 Start                1.0800E+02 6.0260E+01 4.7741E+01 4.0370E-17 4.0370E-17 0.0000E+00
 Far field            1.0801E+02 1.0801E+02 8.6848E-12 7.8312E-17 7.8312E-17 0.0000E+00
 Start2               1.0801E+02 1.0801E+02 7.1948E-05 5.7819E-17 5.7819E-17 0.0000E+00
 Start3               1.8701E-03 1.8701E-03 5.9570E-13 2.1965E-21 2.1965E-21 0.0000E+00
 After split          1.0189E-03 1.0189E-03 3.1310E-20 1.1968E-21 1.1968E-21 0.0000E+00
 SWT_Normal           1.0801E+02 1.0801E+02 1.8733E-12 5.7211E-17 5.7211E-17 0.0000E+00
 
1
                                             Water quality calculation Sobek-WQ      
                                                                                     
                                                                                     
                                             T0: 2010.01.01 00:00:00  (scu=       1s)
   1.52% Completed


 DUMP OF INTERMEDIATE RESULTS IN SELECTED SEGMENTS
  TIME =   0D  4H  0M  0S .
 
 TOTAL MASS IN SYSTEM 5.8740E+03 5.4420E+03 4.3200E+02 7.3424E-15 7.3424E-15 0.0000E+00
 CHANGES BY PROCESSES 0.0000E+00 0.0000E+00 0.0000E+00 0.0000E+00 0.0000E+00 0.0000E+00
 CHANGES BY LOADS     0.0000E+00 0.0000E+00 0.0000E+00 0.0000E+00 0.0000E+00 0.0000E+00
 BOUNDARY INFLOWS     1.0800E+02 0.0000E+00 1.0800E+02 0.0000E+00 0.0000E+00 0.0000E+00
 BOUNDARY OUTFLOWS    1.0801E+02 1.0801E+02 8.8128E-11 9.8647E-17 9.8647E-17 0.0000E+00
                      Continuity cTR1       cTR2       cTR3       cTR4       cTR5       
                                                                                        
 CONCENTRATION                           
 End1                 1.0000E+00 9.9993E-01 6.7709E-05 1.4125E-18 1.4125E-18 0.0000E+00
 Near pipe            1.0000E+00 9.8227E-01 1.7728E-02 1.4125E-18 1.4125E-18 0.0000E+00
 Upstream pipe        1.0000E+00 8.4763E-01 1.5237E-01 1.4125E-18 1.4125E-18 0.0000E+00
 Start                1.0000E+00 3.3736E-01 6.6264E-01 1.4125E-18 1.4125E-18 0.0000E+00
 Far field            1.0000E+00 1.0000E+00 8.7662E-12 5.9042E-19 5.9042E-19 0.0000E+00
 Start2               1.0000E+00 9.9999E-01 1.3984E-05 0.0000E+00 0.0000E+00 0.0000E+00
 Start3               1.0000E+00 1.0000E+00 3.1853E-10 1.4125E-18 1.4125E-18 0.0000E+00
 After split          1.0000E+00 1.0000E+00 2.0628E-17 1.4125E-18 1.4125E-18 0.0000E+00
 SWT_Normal           1.0000E+00 9.2645E-01 7.3545E-02 1.2500E-18 1.2500E-18 0.0000E+00
 MASS                                    
 End1                 2.4991E+02 2.4990E+02 1.6921E-02 3.5299E-16 3.5299E-16 0.0000E+00
 Near pipe            2.4998E+02 2.4555E+02 4.4316E+00 3.5309E-16 3.5309E-16 0.0000E+00
 Upstream pipe        2.4999E+02 2.1190E+02 3.8092E+01 3.5310E-16 3.5310E-16 0.0000E+00
 Start                2.5000E+02 8.4338E+01 1.6566E+02 3.5311E-16 3.5311E-16 0.0000E+00
 Far field            2.4993E+02 2.4993E+02 2.1909E-09 1.4756E-16 1.4756E-16 0.0000E+00
 Start2               2.4991E+02 2.4991E+02 3.4947E-03 0.0000E+00 0.0000E+00 0.0000E+00
 Start3               2.4991E+02 2.4991E+02 7.9604E-08 3.5299E-16 3.5299E-16 0.0000E+00
 After split          2.4996E+02 2.4996E+02 5.1562E-15 3.5306E-16 3.5306E-16 0.0000E+00
 SWT_Normal           5.8740E+03 5.4420E+03 4.3200E+02 7.3424E-15 7.3424E-15 0.0000E+00
 PROCESSES                               
 End1                 0.0000E+00 0.0000E+00 0.0000E+00 0.0000E+00 0.0000E+00 0.0000E+00
 Near pipe            0.0000E+00 0.0000E+00 0.0000E+00 0.0000E+00 0.0000E+00 0.0000E+00
 Upstream pipe        0.0000E+00 0.0000E+00 0.0000E+00 0.0000E+00 0.0000E+00 0.0000E+00
 Start                0.0000E+00 0.0000E+00 0.0000E+00 0.0000E+00 0.0000E+00 0.0000E+00
 Far field            0.0000E+00 0.0000E+00 0.0000E+00 0.0000E+00 0.0000E+00 0.0000E+00
 Start2               0.0000E+00 0.0000E+00 0.0000E+00 0.0000E+00 0.0000E+00 0.0000E+00
 Start3               0.0000E+00 0.0000E+00 0.0000E+00 0.0000E+00 0.0000E+00 0.0000E+00
 After split          0.0000E+00 0.0000E+00 0.0000E+00 0.0000E+00 0.0000E+00 0.0000E+00
 SWT_Normal           0.0000E+00 0.0000E+00 0.0000E+00 0.0000E+00 0.0000E+00 0.0000E+00
 LOADS ( IN )                            
 End1                 0.0000E+00 0.0000E+00 0.0000E+00 0.0000E+00 0.0000E+00 0.0000E+00
 Near pipe            0.0000E+00 0.0000E+00 0.0000E+00 0.0000E+00 0.0000E+00 0.0000E+00
 Upstream pipe        0.0000E+00 0.0000E+00 0.0000E+00 0.0000E+00 0.0000E+00 0.0000E+00
 Start                0.0000E+00 0.0000E+00 0.0000E+00 0.0000E+00 0.0000E+00 0.0000E+00
 Far field            0.0000E+00 0.0000E+00 0.0000E+00 0.0000E+00 0.0000E+00 0.0000E+00
 Start2               0.0000E+00 0.0000E+00 0.0000E+00 0.0000E+00 0.0000E+00 0.0000E+00
 Start3               0.0000E+00 0.0000E+00 0.0000E+00 0.0000E+00 0.0000E+00 0.0000E+00
 After split          0.0000E+00 0.0000E+00 0.0000E+00 0.0000E+00 0.0000E+00 0.0000E+00
 SWT_Normal           0.0000E+00 0.0000E+00 0.0000E+00 0.0000E+00 0.0000E+00 0.0000E+00
 LOADS ( OUT )                           
 End1                 0.0000E+00 0.0000E+00 0.0000E+00 0.0000E+00 0.0000E+00 0.0000E+00
 Near pipe            0.0000E+00 0.0000E+00 0.0000E+00 0.0000E+00 0.0000E+00 0.0000E+00
 Upstream pipe        0.0000E+00 0.0000E+00 0.0000E+00 0.0000E+00 0.0000E+00 0.0000E+00
 Start                0.0000E+00 0.0000E+00 0.0000E+00 0.0000E+00 0.0000E+00 0.0000E+00
 Far field            0.0000E+00 0.0000E+00 0.0000E+00 0.0000E+00 0.0000E+00 0.0000E+00
 Start2               0.0000E+00 0.0000E+00 0.0000E+00 0.0000E+00 0.0000E+00 0.0000E+00
 Start3               0.0000E+00 0.0000E+00 0.0000E+00 0.0000E+00 0.0000E+00 0.0000E+00
 After split          0.0000E+00 0.0000E+00 0.0000E+00 0.0000E+00 0.0000E+00 0.0000E+00
 SWT_Normal           0.0000E+00 0.0000E+00 0.0000E+00 0.0000E+00 0.0000E+00 0.0000E+00
 TRANSPORT ( IN )                        
 End1                 1.0801E+02 1.0799E+02 1.8484E-02 1.9904E-16 1.9904E-16 0.0000E+00
 Near pipe            1.0800E+02 1.0368E+02 4.3243E+00 1.6781E-16 1.6781E-16 0.0000E+00
 Upstream pipe        1.0800E+02 7.5937E+01 3.2065E+01 8.8419E-17 8.8419E-17 0.0000E+00
 Start                1.0800E+02 6.1441E+00 1.0186E+02 8.8418E-17 8.8418E-17 0.0000E+00
 Far field            1.0801E+02 1.0801E+02 2.4862E-09 2.1056E-17 2.1056E-17 0.0000E+00
 Start2               1.0801E+02 1.0801E+02 3.8631E-03 1.3660E-16 1.3660E-16 0.0000E+00
 Start3               2.0758E-03 2.0758E-03 2.6949E-16 6.1120E-21 6.1120E-21 0.0000E+00
 After split          8.9737E-04 8.9737E-04 0.0000E+00 1.3943E-21 1.3943E-21 0.0000E+00
 SWT_Normal           1.0800E+02 0.0000E+00 1.0800E+02 0.0000E+00 0.0000E+00 0.0000E+00
 TRANSPORT ( OUT )                       
 End1                 1.0801E+02 1.0800E+02 3.8631E-03 1.3659E-16 1.3659E-16 0.0000E+00
 Near pipe            1.0800E+02 1.0672E+02 1.2821E+00 8.8421E-17 8.8421E-17 0.0000E+00
 Upstream pipe        1.0800E+02 9.5224E+01 1.2779E+01 1.3658E-16 1.3658E-16 0.0000E+00
 Start                1.0800E+02 4.2637E+01 6.5364E+01 8.8419E-17 8.8419E-17 0.0000E+00
 Far field            1.0801E+02 1.0801E+02 3.5759E-10 1.0665E-16 1.0665E-16 0.0000E+00
 Start2               1.0801E+02 1.0801E+02 7.5993E-04 1.7700E-16 1.7700E-16 0.0000E+00
 Start3               2.6503E-03 2.6503E-03 8.4420E-13 5.6505E-21 5.6505E-21 0.0000E+00
 After split          1.4904E-03 1.4904E-03 3.6142E-20 2.7467E-21 2.7467E-21 0.0000E+00
 SWT_Normal           1.0801E+02 1.0801E+02 8.8128E-11 9.8647E-17 9.8647E-17 0.0000E+00
 
   1.89% Completed


 DUMP OF INTERMEDIATE RESULTS IN SELECTED SEGMENTS
  TIME =   0D  5H  0M  0S .
 
 TOTAL MASS IN SYSTEM 5.8740E+03 5.3340E+03 5.4000E+02 3.2102E-15 3.2102E-15 0.0000E+00
 CHANGES BY PROCESSES 0.0000E+00 0.0000E+00 0.0000E+00 0.0000E+00 0.0000E+00 0.0000E+00
 CHANGES BY LOADS     0.0000E+00 0.0000E+00 0.0000E+00 0.0000E+00 0.0000E+00 0.0000E+00
 BOUNDARY INFLOWS     1.0800E+02 0.0000E+00 1.0800E+02 0.0000E+00 0.0000E+00 0.0000E+00
 BOUNDARY OUTFLOWS    1.0800E+02 1.0800E+02 1.9384E-09 0.0000E+00 0.0000E+00 0.0000E+00
                      Continuity cTR1       cTR2       cTR3       cTR4       cTR5       
                                                                                        
 CONCENTRATION                           
 End1                 1.0000E+00 9.9969E-01 3.1184E-04 0.0000E+00 0.0000E+00 0.0000E+00
 Near pipe            1.0000E+00 9.5871E-01 4.1289E-02 0.0000E+00 0.0000E+00 0.0000E+00
 Upstream pipe        1.0000E+00 7.5183E-01 2.4817E-01 0.0000E+00 0.0000E+00 0.0000E+00
 Start                1.0000E+00 2.3071E-01 7.6929E-01 0.0000E+00 0.0000E+00 0.0000E+00
 Far field            1.0000E+00 1.0000E+00 1.5149E-10 7.6391E-19 7.6391E-19 0.0000E+00
 Start2               1.0000E+00 9.9992E-01 7.5645E-05 3.4559E-18 3.4559E-18 0.0000E+00
 Start3               1.0000E+00 1.0000E+00 3.4249E-10 1.6040E-19 1.6040E-19 0.0000E+00
 After split          1.0000E+00 1.0000E+00 1.9148E-17 0.0000E+00 0.0000E+00 0.0000E+00
 SWT_Normal           1.0000E+00 9.0807E-01 9.1931E-02 5.4651E-19 5.4651E-19 0.0000E+00
 MASS                                    
 End1                 2.4991E+02 2.4984E+02 7.7933E-02 0.0000E+00 0.0000E+00 0.0000E+00
 Near pipe            2.4998E+02 2.3966E+02 1.0321E+01 0.0000E+00 0.0000E+00 0.0000E+00
 Upstream pipe        2.4999E+02 1.8795E+02 6.2038E+01 0.0000E+00 0.0000E+00 0.0000E+00
 Start                2.5000E+02 5.7678E+01 1.9232E+02 0.0000E+00 0.0000E+00 0.0000E+00
 Far field            2.4993E+02 2.4993E+02 3.7861E-08 1.9092E-16 1.9092E-16 0.0000E+00
 Start2               2.4991E+02 2.4989E+02 1.8904E-02 8.6366E-16 8.6366E-16 0.0000E+00
 Start3               2.4991E+02 2.4991E+02 8.5593E-08 4.0087E-17 4.0087E-17 0.0000E+00
 After split          2.4996E+02 2.4996E+02 4.7864E-15 0.0000E+00 0.0000E+00 0.0000E+00
 SWT_Normal           5.8740E+03 5.3340E+03 5.4000E+02 3.2102E-15 3.2102E-15 0.0000E+00
 PROCESSES                               
 End1                 0.0000E+00 0.0000E+00 0.0000E+00 0.0000E+00 0.0000E+00 0.0000E+00
 Near pipe            0.0000E+00 0.0000E+00 0.0000E+00 0.0000E+00 0.0000E+00 0.0000E+00
 Upstream pipe        0.0000E+00 0.0000E+00 0.0000E+00 0.0000E+00 0.0000E+00 0.0000E+00
 Start                0.0000E+00 0.0000E+00 0.0000E+00 0.0000E+00 0.0000E+00 0.0000E+00
 Far field            0.0000E+00 0.0000E+00 0.0000E+00 0.0000E+00 0.0000E+00 0.0000E+00
 Start2               0.0000E+00 0.0000E+00 0.0000E+00 0.0000E+00 0.0000E+00 0.0000E+00
 Start3               0.0000E+00 0.0000E+00 0.0000E+00 0.0000E+00 0.0000E+00 0.0000E+00
 After split          0.0000E+00 0.0000E+00 0.0000E+00 0.0000E+00 0.0000E+00 0.0000E+00
 SWT_Normal           0.0000E+00 0.0000E+00 0.0000E+00 0.0000E+00 0.0000E+00 0.0000E+00
 LOADS ( IN )                            
 End1                 0.0000E+00 0.0000E+00 0.0000E+00 0.0000E+00 0.0000E+00 0.0000E+00
 Near pipe            0.0000E+00 0.0000E+00 0.0000E+00 0.0000E+00 0.0000E+00 0.0000E+00
 Upstream pipe        0.0000E+00 0.0000E+00 0.0000E+00 0.0000E+00 0.0000E+00 0.0000E+00
 Start                0.0000E+00 0.0000E+00 0.0000E+00 0.0000E+00 0.0000E+00 0.0000E+00
 Far field            0.0000E+00 0.0000E+00 0.0000E+00 0.0000E+00 0.0000E+00 0.0000E+00
 Start2               0.0000E+00 0.0000E+00 0.0000E+00 0.0000E+00 0.0000E+00 0.0000E+00
 Start3               0.0000E+00 0.0000E+00 0.0000E+00 0.0000E+00 0.0000E+00 0.0000E+00
 After split          0.0000E+00 0.0000E+00 0.0000E+00 0.0000E+00 0.0000E+00 0.0000E+00
 SWT_Normal           0.0000E+00 0.0000E+00 0.0000E+00 0.0000E+00 0.0000E+00 0.0000E+00
 LOADS ( OUT )                           
 End1                 0.0000E+00 0.0000E+00 0.0000E+00 0.0000E+00 0.0000E+00 0.0000E+00
 Near pipe            0.0000E+00 0.0000E+00 0.0000E+00 0.0000E+00 0.0000E+00 0.0000E+00
 Upstream pipe        0.0000E+00 0.0000E+00 0.0000E+00 0.0000E+00 0.0000E+00 0.0000E+00
 Start                0.0000E+00 0.0000E+00 0.0000E+00 0.0000E+00 0.0000E+00 0.0000E+00
 Far field            0.0000E+00 0.0000E+00 0.0000E+00 0.0000E+00 0.0000E+00 0.0000E+00
 Start2               0.0000E+00 0.0000E+00 0.0000E+00 0.0000E+00 0.0000E+00 0.0000E+00
 Start3               0.0000E+00 0.0000E+00 0.0000E+00 0.0000E+00 0.0000E+00 0.0000E+00
 After split          0.0000E+00 0.0000E+00 0.0000E+00 0.0000E+00 0.0000E+00 0.0000E+00
 SWT_Normal           0.0000E+00 0.0000E+00 0.0000E+00 0.0000E+00 0.0000E+00 0.0000E+00
 TRANSPORT ( IN )                        
 End1                 1.0800E+02 1.0792E+02 8.1070E-02 3.4373E-17 3.4373E-17 0.0000E+00
 Near pipe            1.0800E+02 9.8824E+01 9.1763E+00 1.9438E-17 1.9438E-17 0.0000E+00
 Upstream pipe        1.0800E+02 6.1680E+01 4.6320E+01 3.4373E-17 3.4373E-17 0.0000E+00
 Start                1.0800E+02 2.7410E+00 1.0526E+02 3.4373E-17 3.4373E-17 0.0000E+00
 Far field            1.0800E+02 1.0800E+02 4.2687E-08 1.4177E-16 1.4177E-16 0.0000E+00
 Start2               1.0800E+02 1.0798E+02 2.0058E-02 3.4373E-17 3.4373E-17 0.0000E+00
 Start3               3.2247E-05 3.2241E-05 5.9889E-09 1.0263E-23 1.0263E-23 0.0000E+00
 After split          1.7914E-05 1.7914E-05 2.3261E-18 3.2242E-24 3.2242E-24 0.0000E+00
 SWT_Normal           1.0800E+02 0.0000E+00 1.0800E+02 0.0000E+00 0.0000E+00 0.0000E+00
 TRANSPORT ( OUT )                       
 End1                 1.0800E+02 1.0798E+02 2.0058E-02 3.4373E-17 3.4373E-17 0.0000E+00
 Near pipe            1.0800E+02 1.0471E+02 3.2864E+00 1.9438E-17 1.9438E-17 0.0000E+00
 Upstream pipe        1.0800E+02 8.5627E+01 2.2373E+01 1.9438E-17 1.9438E-17 0.0000E+00
 Start                1.0800E+02 2.9401E+01 7.8599E+01 0.0000E+00 0.0000E+00 0.0000E+00
 Far field            1.0800E+02 1.0800E+02 7.0169E-09 9.8132E-17 9.8132E-17 0.0000E+00
 Start2               1.0800E+02 1.0800E+02 4.6482E-03 1.6759E-16 1.6759E-16 0.0000E+00
 Start3               2.5081E-05 2.5081E-05 8.2702E-15 6.0165E-24 6.0165E-24 0.0000E+00
 After split          1.0748E-05 1.0748E-05 2.1141E-22 1.9345E-24 1.9345E-24 0.0000E+00
 SWT_Normal           1.0800E+02 1.0800E+02 1.9384E-09 0.0000E+00 0.0000E+00 0.0000E+00
 
1
                                             Water quality calculation Sobek-WQ      
                                                                                     
                                                                                     
                                             T0: 2010.01.01 00:00:00  (scu=       1s)
   2.27% Completed


 DUMP OF INTERMEDIATE RESULTS IN SELECTED SEGMENTS
  TIME =   0D  6H  0M  0S .
 
 TOTAL MASS IN SYSTEM 5.8740E+03 5.2260E+03 6.4800E+02 1.7824E-14 1.7824E-14 0.0000E+00
 CHANGES BY PROCESSES 0.0000E+00 0.0000E+00 0.0000E+00 0.0000E+00 0.0000E+00 0.0000E+00
 CHANGES BY LOADS     0.0000E+00 0.0000E+00 0.0000E+00 0.0000E+00 0.0000E+00 0.0000E+00
 BOUNDARY INFLOWS     1.0800E+02 0.0000E+00 1.0800E+02 0.0000E+00 0.0000E+00 0.0000E+00
 BOUNDARY OUTFLOWS    1.0800E+02 1.0800E+02 2.5183E-08 3.2909E-16 3.2909E-16 0.0000E+00
                      Continuity cTR1       cTR2       cTR3       cTR4       cTR5       
                                                                                        
 CONCENTRATION                           
 End1                 1.0000E+00 9.9895E-01 1.0512E-03 0.0000E+00 0.0000E+00 0.0000E+00
 Near pipe            1.0000E+00 9.2156E-01 7.8440E-02 2.7902E-18 2.7902E-18 0.0000E+00
 Upstream pipe        1.0000E+00 6.4756E-01 3.5244E-01 2.7902E-18 2.7902E-18 0.0000E+00
 Start                1.0000E+00 1.5578E-01 8.4422E-01 2.7902E-18 2.7902E-18 0.0000E+00
 Far field            1.0000E+00 1.0000E+00 1.6064E-09 8.9266E-18 8.9266E-18 0.0000E+00
 Start2               1.0000E+00 9.9971E-01 2.9258E-04 7.3929E-18 7.3929E-18 0.0000E+00
 Start3               1.0000E+00 1.0000E+00 3.9095E-10 4.9583E-18 4.9583E-18 0.0000E+00
 After split          1.0000E+00 1.0000E+00 2.3288E-17 4.5250E-18 4.5250E-18 0.0000E+00
 SWT_Normal           1.0000E+00 8.8968E-01 1.1032E-01 3.0345E-18 3.0345E-18 0.0000E+00
 MASS                                    
 End1                 2.4991E+02 2.4965E+02 2.6272E-01 0.0000E+00 0.0000E+00 0.0000E+00
 Near pipe            2.4998E+02 2.3037E+02 1.9608E+01 6.9750E-16 6.9750E-16 0.0000E+00
 Upstream pipe        2.4999E+02 1.6188E+02 8.8106E+01 6.9753E-16 6.9753E-16 0.0000E+00
 Start                2.5000E+02 3.8944E+01 2.1105E+02 6.9755E-16 6.9755E-16 0.0000E+00
 Far field            2.4993E+02 2.4993E+02 4.0148E-07 2.2310E-15 2.2310E-15 0.0000E+00
 Start2               2.4991E+02 2.4984E+02 7.3119E-02 1.8476E-15 1.8476E-15 0.0000E+00
 Start3               2.4991E+02 2.4991E+02 9.7703E-08 1.2391E-15 1.2391E-15 0.0000E+00
 After split          2.4996E+02 2.4996E+02 5.8210E-15 1.1311E-15 1.1311E-15 0.0000E+00
 SWT_Normal           5.8740E+03 5.2260E+03 6.4800E+02 1.7824E-14 1.7824E-14 0.0000E+00
 PROCESSES                               
 End1                 0.0000E+00 0.0000E+00 0.0000E+00 0.0000E+00 0.0000E+00 0.0000E+00
 Near pipe            0.0000E+00 0.0000E+00 0.0000E+00 0.0000E+00 0.0000E+00 0.0000E+00
 Upstream pipe        0.0000E+00 0.0000E+00 0.0000E+00 0.0000E+00 0.0000E+00 0.0000E+00
 Start                0.0000E+00 0.0000E+00 0.0000E+00 0.0000E+00 0.0000E+00 0.0000E+00
 Far field            0.0000E+00 0.0000E+00 0.0000E+00 0.0000E+00 0.0000E+00 0.0000E+00
 Start2               0.0000E+00 0.0000E+00 0.0000E+00 0.0000E+00 0.0000E+00 0.0000E+00
 Start3               0.0000E+00 0.0000E+00 0.0000E+00 0.0000E+00 0.0000E+00 0.0000E+00
 After split          0.0000E+00 0.0000E+00 0.0000E+00 0.0000E+00 0.0000E+00 0.0000E+00
 SWT_Normal           0.0000E+00 0.0000E+00 0.0000E+00 0.0000E+00 0.0000E+00 0.0000E+00
 LOADS ( IN )                            
 End1                 0.0000E+00 0.0000E+00 0.0000E+00 0.0000E+00 0.0000E+00 0.0000E+00
 Near pipe            0.0000E+00 0.0000E+00 0.0000E+00 0.0000E+00 0.0000E+00 0.0000E+00
 Upstream pipe        0.0000E+00 0.0000E+00 0.0000E+00 0.0000E+00 0.0000E+00 0.0000E+00
 Start                0.0000E+00 0.0000E+00 0.0000E+00 0.0000E+00 0.0000E+00 0.0000E+00
 Far field            0.0000E+00 0.0000E+00 0.0000E+00 0.0000E+00 0.0000E+00 0.0000E+00
 Start2               0.0000E+00 0.0000E+00 0.0000E+00 0.0000E+00 0.0000E+00 0.0000E+00
 Start3               0.0000E+00 0.0000E+00 0.0000E+00 0.0000E+00 0.0000E+00 0.0000E+00
 After split          0.0000E+00 0.0000E+00 0.0000E+00 0.0000E+00 0.0000E+00 0.0000E+00
 SWT_Normal           0.0000E+00 0.0000E+00 0.0000E+00 0.0000E+00 0.0000E+00 0.0000E+00
 LOADS ( OUT )                           
 End1                 0.0000E+00 0.0000E+00 0.0000E+00 0.0000E+00 0.0000E+00 0.0000E+00
 Near pipe            0.0000E+00 0.0000E+00 0.0000E+00 0.0000E+00 0.0000E+00 0.0000E+00
 Upstream pipe        0.0000E+00 0.0000E+00 0.0000E+00 0.0000E+00 0.0000E+00 0.0000E+00
 Start                0.0000E+00 0.0000E+00 0.0000E+00 0.0000E+00 0.0000E+00 0.0000E+00
 Far field            0.0000E+00 0.0000E+00 0.0000E+00 0.0000E+00 0.0000E+00 0.0000E+00
 Start2               0.0000E+00 0.0000E+00 0.0000E+00 0.0000E+00 0.0000E+00 0.0000E+00
 Start3               0.0000E+00 0.0000E+00 0.0000E+00 0.0000E+00 0.0000E+00 0.0000E+00
 After split          0.0000E+00 0.0000E+00 0.0000E+00 0.0000E+00 0.0000E+00 0.0000E+00
 SWT_Normal           0.0000E+00 0.0000E+00 0.0000E+00 0.0000E+00 0.0000E+00 0.0000E+00
 TRANSPORT ( IN )                        
 End1                 1.0800E+02 1.0774E+02 2.5872E-01 2.8148E-16 2.8148E-16 0.0000E+00
 Near pipe            1.0800E+02 9.2036E+01 1.5964E+01 2.1903E-16 2.1903E-16 0.0000E+00
 Upstream pipe        1.0800E+02 4.8594E+01 5.9406E+01 1.3758E-16 1.3758E-16 0.0000E+00
 Start                1.0800E+02 1.2228E+00 1.0678E+02 1.8780E-16 1.8780E-16 0.0000E+00
 Far field            1.0800E+02 1.0800E+02 4.4614E-07 6.0712E-16 6.0712E-16 0.0000E+00
 Start2               1.0800E+02 1.0793E+02 7.3943E-02 1.3758E-16 1.3758E-16 0.0000E+00
 Start3               1.7687E-05 1.7675E-05 1.2110E-08 2.2531E-23 2.2531E-23 0.0000E+00
 After split          9.9484E-06 9.9484E-06 1.2920E-18 7.8365E-24 7.8365E-24 0.0000E+00
 SWT_Normal           1.0800E+02 0.0000E+00 1.0800E+02 0.0000E+00 0.0000E+00 0.0000E+00
 TRANSPORT ( OUT )                       
 End1                 1.0800E+02 1.0793E+02 7.3943E-02 1.3758E-16 1.3758E-16 0.0000E+00
 Near pipe            1.0800E+02 1.0132E+02 6.6769E+00 2.5029E-16 2.5029E-16 0.0000E+00
 Upstream pipe        1.0800E+02 7.4661E+01 3.3339E+01 2.8148E-16 2.8148E-16 0.0000E+00
 Start                1.0800E+02 1.9956E+01 8.8044E+01 2.8148E-16 2.8148E-16 0.0000E+00
 Far field            1.0800E+02 1.0800E+02 8.2525E-08 6.2355E-16 6.2355E-16 0.0000E+00
 Start2               1.0800E+02 1.0798E+02 1.9728E-02 6.9256E-16 6.9256E-16 0.0000E+00
 Start3               1.3855E-05 1.3855E-05 5.0738E-15 3.3095E-23 3.3095E-23 0.0000E+00
 After split          5.9900E-06 5.9900E-06 1.2347E-22 1.7343E-23 1.7343E-23 0.0000E+00
 SWT_Normal           1.0800E+02 1.0800E+02 2.5183E-08 3.2909E-16 3.2909E-16 0.0000E+00
 
   2.65% Completed


 DUMP OF INTERMEDIATE RESULTS IN SELECTED SEGMENTS
  TIME =   0D  7H  0M  0S .
 
 TOTAL MASS IN SYSTEM 5.8740E+03 5.1180E+03 7.5600E+02 3.5282E-14 3.5282E-14 0.0000E+00
 CHANGES BY PROCESSES 0.0000E+00 0.0000E+00 0.0000E+00 0.0000E+00 0.0000E+00 0.0000E+00
 CHANGES BY LOADS     0.0000E+00 0.0000E+00 0.0000E+00 0.0000E+00 0.0000E+00 0.0000E+00
 BOUNDARY INFLOWS     1.0800E+02 0.0000E+00 1.0800E+02 0.0000E+00 0.0000E+00 0.0000E+00
 BOUNDARY OUTFLOWS    1.0800E+02 1.0800E+02 2.2199E-07 1.0930E-15 1.0930E-15 0.0000E+00
                      Continuity cTR1       cTR2       cTR3       cTR4       cTR5       
                                                                                        
 CONCENTRATION                           
 End1                 1.0000E+00 9.9716E-01 2.8352E-03 3.6191E-18 3.6191E-18 0.0000E+00
 Near pipe            1.0000E+00 8.7071E-01 1.2929E-01 5.3539E-18 5.3539E-18 0.0000E+00
 Upstream pipe        1.0000E+00 5.4366E-01 4.5634E-01 5.3539E-18 5.3539E-18 0.0000E+00
 Start                1.0000E+00 1.0432E-01 8.9568E-01 5.3539E-18 5.3539E-18 0.0000E+00
 Far field            1.0000E+00 1.0000E+00 1.1906E-08 9.7555E-18 9.7555E-18 0.0000E+00
 Start2               1.0000E+00 9.9911E-01 8.8953E-04 6.0715E-18 6.0715E-18 0.0000E+00
 Start3               1.0000E+00 1.0000E+00 3.9095E-10 8.8233E-18 8.8233E-18 0.0000E+00
 After split          1.0000E+00 1.0000E+00 2.7609E-17 8.8233E-18 8.8233E-18 0.0000E+00
 SWT_Normal           1.0000E+00 8.7130E-01 1.2870E-01 6.0065E-18 6.0065E-18 0.0000E+00
 MASS                                    
 End1                 2.4991E+02 2.4921E+02 7.0856E-01 9.0448E-16 9.0448E-16 0.0000E+00
 Near pipe            2.4998E+02 2.1766E+02 3.2321E+01 1.3384E-15 1.3384E-15 0.0000E+00
 Upstream pipe        2.4999E+02 1.3591E+02 1.1408E+02 1.3384E-15 1.3384E-15 0.0000E+00
 Start                2.5000E+02 2.6080E+01 2.2392E+02 1.3384E-15 1.3384E-15 0.0000E+00
 Far field            2.4993E+02 2.4993E+02 2.9757E-06 2.4382E-15 2.4382E-15 0.0000E+00
 Start2               2.4991E+02 2.4969E+02 2.2230E-01 1.5173E-15 1.5173E-15 0.0000E+00
 Start3               2.4991E+02 2.4991E+02 9.7703E-08 2.2051E-15 2.2051E-15 0.0000E+00
 After split          2.4996E+02 2.4996E+02 6.9011E-15 2.2055E-15 2.2055E-15 0.0000E+00
 SWT_Normal           5.8740E+03 5.1180E+03 7.5600E+02 3.5282E-14 3.5282E-14 0.0000E+00
 PROCESSES                               
 End1                 0.0000E+00 0.0000E+00 0.0000E+00 0.0000E+00 0.0000E+00 0.0000E+00
 Near pipe            0.0000E+00 0.0000E+00 0.0000E+00 0.0000E+00 0.0000E+00 0.0000E+00
 Upstream pipe        0.0000E+00 0.0000E+00 0.0000E+00 0.0000E+00 0.0000E+00 0.0000E+00
 Start                0.0000E+00 0.0000E+00 0.0000E+00 0.0000E+00 0.0000E+00 0.0000E+00
 Far field            0.0000E+00 0.0000E+00 0.0000E+00 0.0000E+00 0.0000E+00 0.0000E+00
 Start2               0.0000E+00 0.0000E+00 0.0000E+00 0.0000E+00 0.0000E+00 0.0000E+00
 Start3               0.0000E+00 0.0000E+00 0.0000E+00 0.0000E+00 0.0000E+00 0.0000E+00
 After split          0.0000E+00 0.0000E+00 0.0000E+00 0.0000E+00 0.0000E+00 0.0000E+00
 SWT_Normal           0.0000E+00 0.0000E+00 0.0000E+00 0.0000E+00 0.0000E+00 0.0000E+00
 LOADS ( IN )                            
 End1                 0.0000E+00 0.0000E+00 0.0000E+00 0.0000E+00 0.0000E+00 0.0000E+00
 Near pipe            0.0000E+00 0.0000E+00 0.0000E+00 0.0000E+00 0.0000E+00 0.0000E+00
 Upstream pipe        0.0000E+00 0.0000E+00 0.0000E+00 0.0000E+00 0.0000E+00 0.0000E+00
 Start                0.0000E+00 0.0000E+00 0.0000E+00 0.0000E+00 0.0000E+00 0.0000E+00
 Far field            0.0000E+00 0.0000E+00 0.0000E+00 0.0000E+00 0.0000E+00 0.0000E+00
 Start2               0.0000E+00 0.0000E+00 0.0000E+00 0.0000E+00 0.0000E+00 0.0000E+00
 Start3               0.0000E+00 0.0000E+00 0.0000E+00 0.0000E+00 0.0000E+00 0.0000E+00
 After split          0.0000E+00 0.0000E+00 0.0000E+00 0.0000E+00 0.0000E+00 0.0000E+00
 SWT_Normal           0.0000E+00 0.0000E+00 0.0000E+00 0.0000E+00 0.0000E+00 0.0000E+00
 LOADS ( OUT )                           
 End1                 0.0000E+00 0.0000E+00 0.0000E+00 0.0000E+00 0.0000E+00 0.0000E+00
 Near pipe            0.0000E+00 0.0000E+00 0.0000E+00 0.0000E+00 0.0000E+00 0.0000E+00
 Upstream pipe        0.0000E+00 0.0000E+00 0.0000E+00 0.0000E+00 0.0000E+00 0.0000E+00
 Start                0.0000E+00 0.0000E+00 0.0000E+00 0.0000E+00 0.0000E+00 0.0000E+00
 Far field            0.0000E+00 0.0000E+00 0.0000E+00 0.0000E+00 0.0000E+00 0.0000E+00
 Start2               0.0000E+00 0.0000E+00 0.0000E+00 0.0000E+00 0.0000E+00 0.0000E+00
 Start3               0.0000E+00 0.0000E+00 0.0000E+00 0.0000E+00 0.0000E+00 0.0000E+00
 After split          0.0000E+00 0.0000E+00 0.0000E+00 0.0000E+00 0.0000E+00 0.0000E+00
 SWT_Normal           0.0000E+00 0.0000E+00 0.0000E+00 0.0000E+00 0.0000E+00 0.0000E+00
 TRANSPORT ( IN )                        
 End1                 1.0800E+02 1.0734E+02 6.5950E-01 6.2990E-16 6.2990E-16 0.0000E+00
 Near pipe            1.0800E+02 8.3727E+01 2.4273E+01 6.2990E-16 6.2990E-16 0.0000E+00
 Upstream pipe        1.0800E+02 3.7382E+01 7.0618E+01 2.5995E-16 2.5995E-16 0.0000E+00
 Start                1.0800E+02 5.4549E-01 1.0745E+02 3.8010E-16 3.8010E-16 0.0000E+00
 Far field            1.0800E+02 1.0800E+02 3.2404E-06 8.0767E-16 8.0767E-16 0.0000E+00
 Start2               1.0800E+02 1.0779E+02 2.1365E-01 4.1611E-16 4.1611E-16 0.0000E+00
 Start3               2.7222E-07 2.7222E-07 3.5357E-20 6.5521E-25 6.5521E-25 0.0000E+00
 After split          1.1705E-07 1.1705E-07 1.1609E-24 3.1557E-25 3.1557E-25 0.0000E+00
 SWT_Normal           1.0800E+02 0.0000E+00 1.0800E+02 0.0000E+00 0.0000E+00 0.0000E+00
 TRANSPORT ( OUT )                       
 End1                 1.0800E+02 1.0779E+02 2.1365E-01 4.1611E-16 4.1611E-16 0.0000E+00
 Near pipe            1.0800E+02 9.6439E+01 1.1561E+01 5.3623E-16 5.3623E-16 0.0000E+00
 Upstream pipe        1.0800E+02 6.3356E+01 4.4644E+01 6.2990E-16 6.2990E-16 0.0000E+00
 Start                1.0800E+02 1.3410E+01 9.4590E+01 4.7374E-16 4.7374E-16 0.0000E+00
 Far field            1.0800E+02 1.0800E+02 6.6624E-07 1.0116E-15 1.0116E-15 0.0000E+00
 Start2               1.0800E+02 1.0794E+02 6.4470E-02 6.2926E-16 6.2926E-16 0.0000E+00
 Start3               3.4906E-07 3.4906E-07 1.3647E-16 2.7423E-24 2.7423E-24 0.0000E+00
 After split          1.9483E-07 1.9483E-07 5.1993E-24 1.5306E-24 1.5306E-24 0.0000E+00
 SWT_Normal           1.0800E+02 1.0800E+02 2.2199E-07 1.0930E-15 1.0930E-15 0.0000E+00
 
1
                                             Water quality calculation Sobek-WQ      
                                                                                     
                                                                                     
                                             T0: 2010.01.01 00:00:00  (scu=       1s)
   3.03% Completed


 DUMP OF INTERMEDIATE RESULTS IN SELECTED SEGMENTS
  TIME =   0D  8H  0M  0S .
 
 TOTAL MASS IN SYSTEM 5.8740E+03 5.0100E+03 8.6400E+02 5.1759E-14 5.1759E-14 0.0000E+00
 CHANGES BY PROCESSES 0.0000E+00 0.0000E+00 0.0000E+00 0.0000E+00 0.0000E+00 0.0000E+00
 CHANGES BY LOADS     0.0000E+00 0.0000E+00 0.0000E+00 0.0000E+00 0.0000E+00 0.0000E+00
 BOUNDARY INFLOWS     1.0800E+02 0.0000E+00 1.0800E+02 0.0000E+00 0.0000E+00 0.0000E+00
 BOUNDARY OUTFLOWS    1.0800E+02 1.0800E+02 1.4525E-06 1.7175E-15 1.7175E-15 0.0000E+00
                      Continuity cTR1       cTR2       cTR3       cTR4       cTR5       
                                                                                        
 CONCENTRATION                           
 End1                 1.0000E+00 9.9353E-01 6.4691E-03 5.3540E-18 5.3540E-18 0.0000E+00
 Near pipe            1.0000E+00 8.0791E-01 1.9209E-01 8.8235E-18 8.8235E-18 0.0000E+00
 Upstream pipe        1.0000E+00 4.4649E-01 5.5351E-01 7.0888E-18 7.0888E-18 0.0000E+00
 Start                1.0000E+00 6.9487E-02 9.3051E-01 8.8235E-18 8.8235E-18 0.0000E+00
 Far field            1.0000E+00 1.0000E+00 6.7056E-08 1.3225E-17 1.3225E-17 0.0000E+00
 Start2               1.0000E+00 9.9774E-01 2.2563E-03 9.5410E-18 9.5410E-18 0.0000E+00
 Start3               1.0000E+00 1.0000E+00 3.9095E-10 1.0558E-17 1.0558E-17 0.0000E+00
 After split          1.0000E+00 1.0000E+00 3.4034E-17 1.2293E-17 1.2293E-17 0.0000E+00
 SWT_Normal           1.0000E+00 8.5291E-01 1.4709E-01 8.8116E-18 8.8116E-18 0.0000E+00
 MASS                                    
 End1                 2.4991E+02 2.4830E+02 1.6167E+00 1.3380E-15 1.3380E-15 0.0000E+00
 Near pipe            2.4998E+02 2.0196E+02 4.8018E+01 2.2057E-15 2.2057E-15 0.0000E+00
 Upstream pipe        2.4999E+02 1.1162E+02 1.3837E+02 1.7721E-15 1.7721E-15 0.0000E+00
 Start                2.5000E+02 1.7371E+01 2.3262E+02 2.2058E-15 2.2058E-15 0.0000E+00
 Far field            2.4993E+02 2.4993E+02 1.6759E-05 3.3053E-15 3.3053E-15 0.0000E+00
 Start2               2.4991E+02 2.4935E+02 5.6387E-01 2.3844E-15 2.3844E-15 0.0000E+00
 Start3               2.4991E+02 2.4991E+02 9.7703E-08 2.6386E-15 2.6386E-15 0.0000E+00
 After split          2.4996E+02 2.4996E+02 8.5072E-15 3.0728E-15 3.0728E-15 0.0000E+00
 SWT_Normal           5.8740E+03 5.0100E+03 8.6400E+02 5.1759E-14 5.1759E-14 0.0000E+00
 PROCESSES                               
 End1                 0.0000E+00 0.0000E+00 0.0000E+00 0.0000E+00 0.0000E+00 0.0000E+00
 Near pipe            0.0000E+00 0.0000E+00 0.0000E+00 0.0000E+00 0.0000E+00 0.0000E+00
 Upstream pipe        0.0000E+00 0.0000E+00 0.0000E+00 0.0000E+00 0.0000E+00 0.0000E+00
 Start                0.0000E+00 0.0000E+00 0.0000E+00 0.0000E+00 0.0000E+00 0.0000E+00
 Far field            0.0000E+00 0.0000E+00 0.0000E+00 0.0000E+00 0.0000E+00 0.0000E+00
 Start2               0.0000E+00 0.0000E+00 0.0000E+00 0.0000E+00 0.0000E+00 0.0000E+00
 Start3               0.0000E+00 0.0000E+00 0.0000E+00 0.0000E+00 0.0000E+00 0.0000E+00
 After split          0.0000E+00 0.0000E+00 0.0000E+00 0.0000E+00 0.0000E+00 0.0000E+00
 SWT_Normal           0.0000E+00 0.0000E+00 0.0000E+00 0.0000E+00 0.0000E+00 0.0000E+00
 LOADS ( IN )                            
 End1                 0.0000E+00 0.0000E+00 0.0000E+00 0.0000E+00 0.0000E+00 0.0000E+00
 Near pipe            0.0000E+00 0.0000E+00 0.0000E+00 0.0000E+00 0.0000E+00 0.0000E+00
 Upstream pipe        0.0000E+00 0.0000E+00 0.0000E+00 0.0000E+00 0.0000E+00 0.0000E+00
 Start                0.0000E+00 0.0000E+00 0.0000E+00 0.0000E+00 0.0000E+00 0.0000E+00
 Far field            0.0000E+00 0.0000E+00 0.0000E+00 0.0000E+00 0.0000E+00 0.0000E+00
 Start2               0.0000E+00 0.0000E+00 0.0000E+00 0.0000E+00 0.0000E+00 0.0000E+00
 Start3               0.0000E+00 0.0000E+00 0.0000E+00 0.0000E+00 0.0000E+00 0.0000E+00
 After split          0.0000E+00 0.0000E+00 0.0000E+00 0.0000E+00 0.0000E+00 0.0000E+00
 SWT_Normal           0.0000E+00 0.0000E+00 0.0000E+00 0.0000E+00 0.0000E+00 0.0000E+00
 LOADS ( OUT )                           
 End1                 0.0000E+00 0.0000E+00 0.0000E+00 0.0000E+00 0.0000E+00 0.0000E+00
 Near pipe            0.0000E+00 0.0000E+00 0.0000E+00 0.0000E+00 0.0000E+00 0.0000E+00
 Upstream pipe        0.0000E+00 0.0000E+00 0.0000E+00 0.0000E+00 0.0000E+00 0.0000E+00
 Start                0.0000E+00 0.0000E+00 0.0000E+00 0.0000E+00 0.0000E+00 0.0000E+00
 Far field            0.0000E+00 0.0000E+00 0.0000E+00 0.0000E+00 0.0000E+00 0.0000E+00
 Start2               0.0000E+00 0.0000E+00 0.0000E+00 0.0000E+00 0.0000E+00 0.0000E+00
 Start3               0.0000E+00 0.0000E+00 0.0000E+00 0.0000E+00 0.0000E+00 0.0000E+00
 After split          0.0000E+00 0.0000E+00 0.0000E+00 0.0000E+00 0.0000E+00 0.0000E+00
 SWT_Normal           0.0000E+00 0.0000E+00 0.0000E+00 0.0000E+00 0.0000E+00 0.0000E+00
 TRANSPORT ( IN )                        
 End1                 1.0800E+02 1.0658E+02 1.4229E+00 9.4213E-16 9.4213E-16 0.0000E+00
 Near pipe            1.0800E+02 7.4476E+01 3.3524E+01 9.1091E-16 9.1091E-16 0.0000E+00
 Upstream pipe        1.0800E+02 2.8221E+01 7.9779E+01 4.4253E-16 4.4253E-16 0.0000E+00
 Start                1.0800E+02 2.4335E-01 1.0776E+02 3.8008E-16 3.8008E-16 0.0000E+00
 Far field            1.0800E+02 1.0800E+02 1.7814E-05 1.0886E-15 1.0886E-15 0.0000E+00
 Start2               1.0800E+02 1.0749E+02 5.1479E-01 6.2988E-16 6.2988E-16 0.0000E+00
 Start3               9.1696E-08 9.1696E-08 1.1910E-20 4.0224E-25 4.0224E-25 0.0000E+00
 After split          3.9650E-08 3.9650E-08 5.9600E-25 2.3125E-25 2.3125E-25 0.0000E+00
 SWT_Normal           1.0800E+02 0.0000E+00 1.0800E+02 0.0000E+00 0.0000E+00 0.0000E+00
 TRANSPORT ( OUT )                       
 End1                 1.0800E+02 1.0749E+02 5.1479E-01 6.2988E-16 6.2988E-16 0.0000E+00
 Near pipe            1.0800E+02 9.0173E+01 1.7827E+01 9.1091E-16 9.1091E-16 0.0000E+00
 Upstream pipe        1.0800E+02 5.2514E+01 5.5486E+01 8.1723E-16 8.1723E-16 0.0000E+00
 Start                1.0800E+02 8.9519E+00 9.9048E+01 8.4846E-16 8.4846E-16 0.0000E+00
 Far field            1.0800E+02 1.0800E+02 4.0305E-06 1.3240E-15 1.3240E-15 0.0000E+00
 Start2               1.0800E+02 1.0783E+02 1.7322E-01 8.7906E-16 8.7906E-16 0.0000E+00
 Start3               1.1705E-07 1.1705E-07 4.5761E-17 1.2918E-24 1.2918E-24 0.0000E+00
 After split          6.5848E-08 6.5848E-08 2.0179E-24 7.4577E-25 7.4577E-25 0.0000E+00
 SWT_Normal           1.0800E+02 1.0800E+02 1.4525E-06 1.7175E-15 1.7175E-15 0.0000E+00
 
   3.41% Completed


 DUMP OF INTERMEDIATE RESULTS IN SELECTED SEGMENTS
  TIME =   0D  9H  0M  0S .
 
 TOTAL MASS IN SYSTEM 5.8740E+03 4.9020E+03 9.7200E+02 6.8607E-14 6.8607E-14 0.0000E+00
 CHANGES BY PROCESSES 0.0000E+00 0.0000E+00 0.0000E+00 0.0000E+00 0.0000E+00 0.0000E+00
 CHANGES BY LOADS     0.0000E+00 0.0000E+00 0.0000E+00 0.0000E+00 0.0000E+00 0.0000E+00
 BOUNDARY INFLOWS     1.0800E+02 0.0000E+00 1.0800E+02 0.0000E+00 0.0000E+00 0.0000E+00
 BOUNDARY OUTFLOWS    1.0800E+02 1.0800E+02 7.5035E-06 1.9331E-15 1.9331E-15 0.0000E+00
                      Continuity cTR1       cTR2       cTR3       cTR4       cTR5       
                                                                                        
 CONCENTRATION                           
 End1                 1.0000E+00 9.8704E-01 1.2962E-02 8.9584E-18 8.9584E-18 0.0000E+00
 Near pipe            1.0000E+00 7.3622E-01 2.6378E-01 1.2428E-17 1.2428E-17 0.0000E+00
 Upstream pipe        1.0000E+00 3.5979E-01 6.4021E-01 8.9562E-18 8.9562E-18 0.0000E+00
 Start                1.0000E+00 4.6120E-02 9.5388E-01 1.2428E-17 1.2428E-17 0.0000E+00
 Far field            1.0000E+00 1.0000E+00 3.0385E-07 2.0301E-17 2.0301E-17 0.0000E+00
 Start2               1.0000E+00 9.9503E-01 4.9698E-03 1.3254E-17 1.3254E-17 0.0000E+00
 Start3               1.0000E+00 1.0000E+00 3.9108E-10 8.8886E-18 8.8886E-18 0.0000E+00
 After split          1.0000E+00 1.0000E+00 3.0398E-17 1.2428E-17 1.2428E-17 0.0000E+00
 SWT_Normal           1.0000E+00 8.3452E-01 1.6548E-01 1.1680E-17 1.1680E-17 0.0000E+00
 MASS                                    
 End1                 2.4991E+02 2.4667E+02 3.2395E+00 2.2388E-15 2.2388E-15 0.0000E+00
 Near pipe            2.4998E+02 1.8404E+02 6.5939E+01 3.1067E-15 3.1067E-15 0.0000E+00
 Upstream pipe        2.4999E+02 8.9944E+01 1.6004E+02 2.2389E-15 2.2389E-15 0.0000E+00
 Start                2.5000E+02 1.1530E+01 2.3847E+02 3.1069E-15 3.1069E-15 0.0000E+00
 Far field            2.4993E+02 2.4993E+02 7.5939E-05 5.0738E-15 5.0738E-15 0.0000E+00
 Start2               2.4991E+02 2.4867E+02 1.2420E+00 3.3124E-15 3.3124E-15 0.0000E+00
 Start3               2.4991E+02 2.4991E+02 9.7735E-08 2.2214E-15 2.2214E-15 0.0000E+00
 After split          2.4996E+02 2.4996E+02 7.5984E-15 3.1065E-15 3.1065E-15 0.0000E+00
 SWT_Normal           5.8740E+03 4.9020E+03 9.7200E+02 6.8607E-14 6.8607E-14 0.0000E+00
 PROCESSES                               
 End1                 0.0000E+00 0.0000E+00 0.0000E+00 0.0000E+00 0.0000E+00 0.0000E+00
 Near pipe            0.0000E+00 0.0000E+00 0.0000E+00 0.0000E+00 0.0000E+00 0.0000E+00
 Upstream pipe        0.0000E+00 0.0000E+00 0.0000E+00 0.0000E+00 0.0000E+00 0.0000E+00
 Start                0.0000E+00 0.0000E+00 0.0000E+00 0.0000E+00 0.0000E+00 0.0000E+00
 Far field            0.0000E+00 0.0000E+00 0.0000E+00 0.0000E+00 0.0000E+00 0.0000E+00
 Start2               0.0000E+00 0.0000E+00 0.0000E+00 0.0000E+00 0.0000E+00 0.0000E+00
 Start3               0.0000E+00 0.0000E+00 0.0000E+00 0.0000E+00 0.0000E+00 0.0000E+00
 After split          0.0000E+00 0.0000E+00 0.0000E+00 0.0000E+00 0.0000E+00 0.0000E+00
 SWT_Normal           0.0000E+00 0.0000E+00 0.0000E+00 0.0000E+00 0.0000E+00 0.0000E+00
 LOADS ( IN )                            
 End1                 0.0000E+00 0.0000E+00 0.0000E+00 0.0000E+00 0.0000E+00 0.0000E+00
 Near pipe            0.0000E+00 0.0000E+00 0.0000E+00 0.0000E+00 0.0000E+00 0.0000E+00
 Upstream pipe        0.0000E+00 0.0000E+00 0.0000E+00 0.0000E+00 0.0000E+00 0.0000E+00
 Start                0.0000E+00 0.0000E+00 0.0000E+00 0.0000E+00 0.0000E+00 0.0000E+00
 Far field            0.0000E+00 0.0000E+00 0.0000E+00 0.0000E+00 0.0000E+00 0.0000E+00
 Start2               0.0000E+00 0.0000E+00 0.0000E+00 0.0000E+00 0.0000E+00 0.0000E+00
 Start3               0.0000E+00 0.0000E+00 0.0000E+00 0.0000E+00 0.0000E+00 0.0000E+00
 After split          0.0000E+00 0.0000E+00 0.0000E+00 0.0000E+00 0.0000E+00 0.0000E+00
 SWT_Normal           0.0000E+00 0.0000E+00 0.0000E+00 0.0000E+00 0.0000E+00 0.0000E+00
 LOADS ( OUT )                           
 End1                 0.0000E+00 0.0000E+00 0.0000E+00 0.0000E+00 0.0000E+00 0.0000E+00
 Near pipe            0.0000E+00 0.0000E+00 0.0000E+00 0.0000E+00 0.0000E+00 0.0000E+00
 Upstream pipe        0.0000E+00 0.0000E+00 0.0000E+00 0.0000E+00 0.0000E+00 0.0000E+00
 Start                0.0000E+00 0.0000E+00 0.0000E+00 0.0000E+00 0.0000E+00 0.0000E+00
 Far field            0.0000E+00 0.0000E+00 0.0000E+00 0.0000E+00 0.0000E+00 0.0000E+00
 Start2               0.0000E+00 0.0000E+00 0.0000E+00 0.0000E+00 0.0000E+00 0.0000E+00
 Start3               0.0000E+00 0.0000E+00 0.0000E+00 0.0000E+00 0.0000E+00 0.0000E+00
 After split          0.0000E+00 0.0000E+00 0.0000E+00 0.0000E+00 0.0000E+00 0.0000E+00
 SWT_Normal           0.0000E+00 0.0000E+00 0.0000E+00 0.0000E+00 0.0000E+00 0.0000E+00
 TRANSPORT ( IN )                        
 End1                 1.0800E+02 1.0530E+02 2.7007E+00 1.1266E-15 1.1266E-15 0.0000E+00
 Near pipe            1.0800E+02 6.4879E+01 4.3121E+01 1.1890E-15 1.1890E-15 0.0000E+00
 Upstream pipe        1.0800E+02 2.0985E+01 8.7015E+01 7.2064E-16 7.2064E-16 0.0000E+00
 Start                1.0800E+02 1.0856E-01 1.0789E+02 3.7717E-16 3.7717E-16 0.0000E+00
 Far field            1.0800E+02 1.0800E+02 7.8582E-05 1.3043E-15 1.3043E-15 0.0000E+00
 Start2               1.0800E+02 1.0692E+02 1.0779E+00 8.7677E-16 8.7677E-16 0.0000E+00
 Start3               3.2276E-09 3.1954E-09 3.2215E-11 2.6203E-26 2.6203E-26 0.0000E+00
 After split          1.8052E-09 1.8052E-09 2.3449E-22 1.9875E-26 1.9875E-26 0.0000E+00
 SWT_Normal           1.0800E+02 0.0000E+00 1.0800E+02 0.0000E+00 0.0000E+00 0.0000E+00
 TRANSPORT ( OUT )                       
 End1                 1.0800E+02 1.0692E+02 1.0779E+00 8.7677E-16 8.7677E-16 0.0000E+00
 Near pipe            1.0800E+02 8.2800E+01 2.5200E+01 1.4388E-15 1.4388E-15 0.0000E+00
 Upstream pipe        1.0800E+02 4.2657E+01 6.5343E+01 9.7041E-16 9.7041E-16 0.0000E+00
 Start                1.0800E+02 5.9503E+00 1.0205E+02 1.2515E-15 1.2515E-15 0.0000E+00
 Far field            1.0800E+02 1.0800E+02 1.9402E-05 1.8207E-15 1.8207E-15 0.0000E+00
 Start2               1.0800E+02 1.0760E+02 3.9982E-01 1.2630E-15 1.2630E-15 0.0000E+00
 Start3               2.5201E-09 2.5201E-09 9.8540E-19 2.5383E-26 2.5383E-26 0.0000E+00
 After split          1.0852E-09 1.0852E-09 3.5692E-26 1.4771E-26 1.4771E-26 0.0000E+00
 SWT_Normal           1.0800E+02 1.0800E+02 7.5035E-06 1.9331E-15 1.9331E-15 0.0000E+00
 
1
                                             Water quality calculation Sobek-WQ      
                                                                                     
                                                                                     
                                             T0: 2010.01.01 00:00:00  (scu=       1s)
   3.79% Completed


 DUMP OF INTERMEDIATE RESULTS IN SELECTED SEGMENTS
  TIME =   0D 10H  0M  0S .
 
 TOTAL MASS IN SYSTEM 5.8740E+03 4.7940E+03 1.0800E+03 7.9384E-14 7.9384E-14 0.0000E+00
 CHANGES BY PROCESSES 0.0000E+00 0.0000E+00 0.0000E+00 0.0000E+00 0.0000E+00 0.0000E+00
 CHANGES BY LOADS     0.0000E+00 0.0000E+00 0.0000E+00 0.0000E+00 0.0000E+00 0.0000E+00
 BOUNDARY INFLOWS     1.0800E+02 0.0000E+00 1.0800E+02 0.0000E+00 0.0000E+00 0.0000E+00
 BOUNDARY OUTFLOWS    1.0800E+02 1.0800E+02 3.1991E-05 1.9195E-15 1.9195E-15 0.0000E+00
                      Continuity cTR1       cTR2       cTR3       cTR4       cTR5       
                                                                                        
 CONCENTRATION                           
 End1                 1.0000E+00 9.7658E-01 2.3418E-02 1.0590E-17 1.0590E-17 0.0000E+00
 Near pipe            1.0000E+00 6.5926E-01 3.4074E-01 1.2325E-17 1.2325E-17 0.0000E+00
 Upstream pipe        1.0000E+00 2.8524E-01 7.1476E-01 1.0590E-17 1.0590E-17 0.0000E+00
 Start                1.0000E+00 3.0538E-02 9.6946E-01 1.4060E-17 1.4060E-17 0.0000E+00
 Far field            1.0000E+00 1.0000E+00 1.1539E-06 2.1933E-17 2.1933E-17 0.0000E+00
 Start2               1.0000E+00 9.9022E-01 9.7776E-03 1.6548E-17 1.6548E-17 0.0000E+00
 Start3               1.0000E+00 1.0000E+00 3.9113E-10 6.6919E-18 6.6919E-18 0.0000E+00
 After split          1.0000E+00 1.0000E+00 3.6629E-17 1.9264E-17 1.9264E-17 0.0000E+00
 SWT_Normal           1.0000E+00 8.1614E-01 1.8386E-01 1.3515E-17 1.3515E-17 0.0000E+00
 MASS                                    
 End1                 2.4991E+02 2.4406E+02 5.8524E+00 2.6467E-15 2.6467E-15 0.0000E+00
 Near pipe            2.4998E+02 1.6480E+02 8.5179E+01 3.0810E-15 3.0810E-15 0.0000E+00
 Upstream pipe        2.4999E+02 7.1306E+01 1.7868E+02 2.6474E-15 2.6474E-15 0.0000E+00
 Start                2.5000E+02 7.6343E+00 2.4236E+02 3.5149E-15 3.5149E-15 0.0000E+00
 Far field            2.4993E+02 2.4993E+02 2.8839E-04 5.4816E-15 5.4816E-15 0.0000E+00
 Start2               2.4991E+02 2.4747E+02 2.4435E+00 4.1354E-15 4.1354E-15 0.0000E+00
 Start3               2.4991E+02 2.4991E+02 9.7749E-08 1.6724E-15 1.6724E-15 0.0000E+00
 After split          2.4996E+02 2.4996E+02 9.1559E-15 4.8152E-15 4.8152E-15 0.0000E+00
 SWT_Normal           5.8740E+03 4.7940E+03 1.0800E+03 7.9384E-14 7.9384E-14 0.0000E+00
 PROCESSES                               
 End1                 0.0000E+00 0.0000E+00 0.0000E+00 0.0000E+00 0.0000E+00 0.0000E+00
 Near pipe            0.0000E+00 0.0000E+00 0.0000E+00 0.0000E+00 0.0000E+00 0.0000E+00
 Upstream pipe        0.0000E+00 0.0000E+00 0.0000E+00 0.0000E+00 0.0000E+00 0.0000E+00
 Start                0.0000E+00 0.0000E+00 0.0000E+00 0.0000E+00 0.0000E+00 0.0000E+00
 Far field            0.0000E+00 0.0000E+00 0.0000E+00 0.0000E+00 0.0000E+00 0.0000E+00
 Start2               0.0000E+00 0.0000E+00 0.0000E+00 0.0000E+00 0.0000E+00 0.0000E+00
 Start3               0.0000E+00 0.0000E+00 0.0000E+00 0.0000E+00 0.0000E+00 0.0000E+00
 After split          0.0000E+00 0.0000E+00 0.0000E+00 0.0000E+00 0.0000E+00 0.0000E+00
 SWT_Normal           0.0000E+00 0.0000E+00 0.0000E+00 0.0000E+00 0.0000E+00 0.0000E+00
 LOADS ( IN )                            
 End1                 0.0000E+00 0.0000E+00 0.0000E+00 0.0000E+00 0.0000E+00 0.0000E+00
 Near pipe            0.0000E+00 0.0000E+00 0.0000E+00 0.0000E+00 0.0000E+00 0.0000E+00
 Upstream pipe        0.0000E+00 0.0000E+00 0.0000E+00 0.0000E+00 0.0000E+00 0.0000E+00
 Start                0.0000E+00 0.0000E+00 0.0000E+00 0.0000E+00 0.0000E+00 0.0000E+00
 Far field            0.0000E+00 0.0000E+00 0.0000E+00 0.0000E+00 0.0000E+00 0.0000E+00
 Start2               0.0000E+00 0.0000E+00 0.0000E+00 0.0000E+00 0.0000E+00 0.0000E+00
 Start3               0.0000E+00 0.0000E+00 0.0000E+00 0.0000E+00 0.0000E+00 0.0000E+00
 After split          0.0000E+00 0.0000E+00 0.0000E+00 0.0000E+00 0.0000E+00 0.0000E+00
 SWT_Normal           0.0000E+00 0.0000E+00 0.0000E+00 0.0000E+00 0.0000E+00 0.0000E+00
 LOADS ( OUT )                           
 End1                 0.0000E+00 0.0000E+00 0.0000E+00 0.0000E+00 0.0000E+00 0.0000E+00
 Near pipe            0.0000E+00 0.0000E+00 0.0000E+00 0.0000E+00 0.0000E+00 0.0000E+00
 Upstream pipe        0.0000E+00 0.0000E+00 0.0000E+00 0.0000E+00 0.0000E+00 0.0000E+00
 Start                0.0000E+00 0.0000E+00 0.0000E+00 0.0000E+00 0.0000E+00 0.0000E+00
 Far field            0.0000E+00 0.0000E+00 0.0000E+00 0.0000E+00 0.0000E+00 0.0000E+00
 Start2               0.0000E+00 0.0000E+00 0.0000E+00 0.0000E+00 0.0000E+00 0.0000E+00
 Start3               0.0000E+00 0.0000E+00 0.0000E+00 0.0000E+00 0.0000E+00 0.0000E+00
 After split          0.0000E+00 0.0000E+00 0.0000E+00 0.0000E+00 0.0000E+00 0.0000E+00
 SWT_Normal           0.0000E+00 0.0000E+00 0.0000E+00 0.0000E+00 0.0000E+00 0.0000E+00
 TRANSPORT ( IN )                        
 End1                 1.0800E+02 1.0337E+02 4.6321E+00 1.4252E-15 1.4252E-15 0.0000E+00
 Near pipe            1.0800E+02 5.5453E+01 5.2547E+01 1.3315E-15 1.3315E-15 0.0000E+00
 Upstream pipe        1.0800E+02 1.5413E+01 9.2587E+01 1.0193E-15 1.0193E-15 0.0000E+00
 Start                1.0800E+02 4.8430E-02 1.0795E+02 4.5724E-16 4.5724E-16 0.0000E+00
 Far field            1.0800E+02 1.0800E+02 2.9004E-04 1.3843E-15 1.3843E-15 0.0000E+00
 Start2               1.0800E+02 1.0598E+02 2.0192E+00 1.2066E-15 1.2066E-15 0.0000E+00
 Start3               7.6784E-10 7.5349E-10 1.4356E-11 8.5788E-27 8.5788E-27 0.0000E+00
 After split          4.3198E-10 4.3198E-10 5.6117E-23 7.0744E-27 7.0744E-27 0.0000E+00
 SWT_Normal           1.0800E+02 0.0000E+00 1.0800E+02 0.0000E+00 0.0000E+00 0.0000E+00
 TRANSPORT ( OUT )                       
 End1                 1.0800E+02 1.0598E+02 2.0192E+00 1.2066E-15 1.2066E-15 0.0000E+00
 Near pipe            1.0800E+02 7.4693E+01 3.3307E+01 1.5813E-15 1.5813E-15 0.0000E+00
 Upstream pipe        1.0800E+02 3.4052E+01 7.3948E+01 1.2066E-15 1.2066E-15 0.0000E+00
 Start                1.0800E+02 3.9438E+00 1.0406E+02 1.5813E-15 1.5813E-15 0.0000E+00
 Far field            1.0800E+02 1.0800E+02 7.7599E-05 2.2130E-15 2.2130E-15 0.0000E+00
 Start2               1.0800E+02 1.0718E+02 8.1765E-01 1.6463E-15 1.6463E-15 0.0000E+00
 Start3               6.0152E-10 6.0152E-10 2.3526E-19 5.2451E-27 5.2451E-27 0.0000E+00
 After split          2.6015E-10 2.6015E-10 9.4052E-27 4.7117E-27 4.7117E-27 0.0000E+00
 SWT_Normal           1.0800E+02 1.0800E+02 3.1991E-05 1.9195E-15 1.9195E-15 0.0000E+00
 
   4.17% Completed


 DUMP OF INTERMEDIATE RESULTS IN SELECTED SEGMENTS
  TIME =   0D 11H  0M  0S .
 
 TOTAL MASS IN SYSTEM 5.8740E+03 4.6860E+03 1.1880E+03 8.7966E-14 8.7966E-14 0.0000E+00
 CHANGES BY PROCESSES 0.0000E+00 0.0000E+00 0.0000E+00 0.0000E+00 0.0000E+00 0.0000E+00
 CHANGES BY LOADS     0.0000E+00 0.0000E+00 0.0000E+00 0.0000E+00 0.0000E+00 0.0000E+00
 BOUNDARY INFLOWS     1.0800E+02 0.0000E+00 1.0800E+02 0.0000E+00 0.0000E+00 0.0000E+00
 BOUNDARY OUTFLOWS    1.0800E+02 1.0800E+02 1.1634E-04 2.2171E-15 2.2171E-15 0.0000E+00
                      Continuity cTR1       cTR2       cTR3       cTR4       cTR5       
                                                                                        
 CONCENTRATION                           
 End1                 1.0000E+00 9.6112E-01 3.8883E-02 1.4027E-17 1.4027E-17 0.0000E+00
 Near pipe            1.0000E+00 5.8062E-01 4.1938E-01 1.2293E-17 1.2293E-17 0.0000E+00
 Upstream pipe        1.0000E+00 2.2295E-01 7.7705E-01 1.2293E-17 1.2293E-17 0.0000E+00
 Start                1.0000E+00 2.0188E-02 9.7981E-01 1.4027E-17 1.4027E-17 0.0000E+00
 Far field            1.0000E+00 1.0000E+00 3.7854E-06 2.3635E-17 2.3635E-17 0.0000E+00
 Start2               1.0000E+00 9.8246E-01 1.7541E-02 1.3017E-17 1.3017E-17 0.0000E+00
 Start3               1.0000E+00 1.0000E+00 3.9113E-10 1.2293E-17 1.2293E-17 0.0000E+00
 After split          1.0000E+00 1.0000E+00 3.2136E-17 1.7497E-17 1.7497E-17 0.0000E+00
 SWT_Normal           1.0000E+00 7.9775E-01 2.0225E-01 1.4976E-17 1.4976E-17 0.0000E+00
 MASS                                    
 End1                 2.4991E+02 2.4020E+02 9.7174E+00 3.5057E-15 3.5057E-15 0.0000E+00
 Near pipe            2.4998E+02 1.4514E+02 1.0484E+02 3.0729E-15 3.0729E-15 0.0000E+00
 Upstream pipe        2.4999E+02 5.5735E+01 1.9425E+02 3.0730E-15 3.0730E-15 0.0000E+00
 Start                2.5000E+02 5.0470E+00 2.4495E+02 3.5068E-15 3.5068E-15 0.0000E+00
 Far field            2.4993E+02 2.4993E+02 9.4609E-04 5.9071E-15 5.9071E-15 0.0000E+00
 Start2               2.4991E+02 2.4553E+02 4.3837E+00 3.2531E-15 3.2531E-15 0.0000E+00
 Start3               2.4991E+02 2.4991E+02 9.7749E-08 3.0721E-15 3.0721E-15 0.0000E+00
 After split          2.4996E+02 2.4996E+02 8.0328E-15 4.3736E-15 4.3736E-15 0.0000E+00
 SWT_Normal           5.8740E+03 4.6860E+03 1.1880E+03 8.7966E-14 8.7966E-14 0.0000E+00
 PROCESSES                               
[...]
                                                                                        
 CONCENTRATION                           
 End1                 1.0000E+00 9.4777E-36 1.0000E+00 6.2496E-17 4.7662E-17 0.0000E+00
 Near pipe            1.0000E+00 0.0000E+00 1.0000E+00 4.8618E-17 1.6437E-17 0.0000E+00
 Upstream pipe        1.0000E+00 0.0000E+00 1.0000E+00 1.9128E-17 4.2938E-18 0.0000E+00
 Start                1.0000E+00 0.0000E+00 1.0000E+00 8.7194E-18 2.5591E-18 0.0000E+00
 Far field            1.0000E+00 2.7222E-26 3.9283E-16 6.4231E-17 1.0000E+00 0.0000E+00
 Start2               1.0000E+00 1.4798E-18 2.4221E-08 3.3485E-09 1.0000E+00 0.0000E+00
 Start3               1.0000E+00 1.2005E-18 5.0000E-01 2.7187E-09 5.0000E-01 0.0000E+00
 After split          1.0000E+00 3.1182E-18 5.0000E-01 7.0729E-09 5.0000E-01 0.0000E+00
 SWT_Normal           1.0000E+00 6.8973E-19 5.0000E-01 1.5643E-09 5.0000E-01 0.0000E+00
 MASS                                    
 End1                 2.4983E+02 2.3678E-33 2.4983E+02 1.5614E-14 1.1908E-14 0.0000E+00
 Near pipe            2.4990E+02 0.0000E+00 2.4990E+02 1.2150E-14 4.1076E-15 0.0000E+00
 Upstream pipe        2.4991E+02 0.0000E+00 2.4991E+02 4.7802E-15 1.0731E-15 0.0000E+00
 Start                2.4992E+02 0.0000E+00 2.4992E+02 2.1791E-15 6.3956E-16 0.0000E+00
 Far field            2.4992E+02 6.8032E-24 9.8174E-14 1.6052E-14 2.4991E+02 0.0000E+00
 Start2               2.4983E+02 3.6971E-16 6.0511E-06 8.3658E-07 2.4983E+02 0.0000E+00
 Start3               2.4982E+02 2.9992E-16 1.2491E+02 6.7918E-07 1.2491E+02 0.0000E+00
 After split          2.4984E+02 7.7904E-16 1.2492E+02 1.7671E-06 1.2492E+02 0.0000E+00
 SWT_Normal           5.8722E+03 4.0503E-15 2.9361E+03 9.1861E-06 2.9361E+03 0.0000E+00
 PROCESSES                               
 End1                 0.0000E+00 0.0000E+00 0.0000E+00 0.0000E+00 0.0000E+00 0.0000E+00
 Near pipe            0.0000E+00 0.0000E+00 0.0000E+00 0.0000E+00 0.0000E+00 0.0000E+00
 Upstream pipe        0.0000E+00 0.0000E+00 0.0000E+00 0.0000E+00 0.0000E+00 0.0000E+00
 Start                0.0000E+00 0.0000E+00 0.0000E+00 0.0000E+00 0.0000E+00 0.0000E+00
 Far field            0.0000E+00 0.0000E+00 0.0000E+00 0.0000E+00 0.0000E+00 0.0000E+00
 Start2               0.0000E+00 0.0000E+00 0.0000E+00 0.0000E+00 0.0000E+00 0.0000E+00
 Start3               0.0000E+00 0.0000E+00 0.0000E+00 0.0000E+00 0.0000E+00 0.0000E+00
 After split          0.0000E+00 0.0000E+00 0.0000E+00 0.0000E+00 0.0000E+00 0.0000E+00
 SWT_Normal           0.0000E+00 0.0000E+00 0.0000E+00 0.0000E+00 0.0000E+00 0.0000E+00
 LOADS ( IN )                            
 End1                 0.0000E+00 0.0000E+00 0.0000E+00 0.0000E+00 0.0000E+00 0.0000E+00
 Near pipe            0.0000E+00 0.0000E+00 0.0000E+00 0.0000E+00 0.0000E+00 0.0000E+00
 Upstream pipe        0.0000E+00 0.0000E+00 0.0000E+00 0.0000E+00 0.0000E+00 0.0000E+00
 Start                0.0000E+00 0.0000E+00 0.0000E+00 0.0000E+00 0.0000E+00 0.0000E+00
 Far field            0.0000E+00 0.0000E+00 0.0000E+00 0.0000E+00 0.0000E+00 0.0000E+00
 Start2               0.0000E+00 0.0000E+00 0.0000E+00 0.0000E+00 0.0000E+00 0.0000E+00
 Start3               0.0000E+00 0.0000E+00 0.0000E+00 0.0000E+00 0.0000E+00 0.0000E+00
 After split          0.0000E+00 0.0000E+00 0.0000E+00 0.0000E+00 0.0000E+00 0.0000E+00
 SWT_Normal           0.0000E+00 0.0000E+00 0.0000E+00 0.0000E+00 0.0000E+00 0.0000E+00
 LOADS ( OUT )                           
 End1                 0.0000E+00 0.0000E+00 0.0000E+00 0.0000E+00 0.0000E+00 0.0000E+00
 Near pipe            0.0000E+00 0.0000E+00 0.0000E+00 0.0000E+00 0.0000E+00 0.0000E+00
 Upstream pipe        0.0000E+00 0.0000E+00 0.0000E+00 0.0000E+00 0.0000E+00 0.0000E+00
 Start                0.0000E+00 0.0000E+00 0.0000E+00 0.0000E+00 0.0000E+00 0.0000E+00
 Far field            0.0000E+00 0.0000E+00 0.0000E+00 0.0000E+00 0.0000E+00 0.0000E+00
 Start2               0.0000E+00 0.0000E+00 0.0000E+00 0.0000E+00 0.0000E+00 0.0000E+00
 Start3               0.0000E+00 0.0000E+00 0.0000E+00 0.0000E+00 0.0000E+00 0.0000E+00
 After split          0.0000E+00 0.0000E+00 0.0000E+00 0.0000E+00 0.0000E+00 0.0000E+00
 SWT_Normal           0.0000E+00 0.0000E+00 0.0000E+00 0.0000E+00 0.0000E+00 0.0000E+00
 TRANSPORT ( IN )                        
 End1                 1.0800E+02 1.3712E-34 1.0800E+02 6.7235E-15 4.6835E-15 0.0000E+00
 Near pipe            1.0800E+02 0.0000E+00 1.0800E+02 3.9445E-15 9.6773E-16 0.0000E+00
 Upstream pipe        1.0800E+02 0.0000E+00 1.0800E+02 1.9149E-15 8.9223E-17 0.0000E+00
 Start                1.0800E+02 0.0000E+00 1.0800E+02 5.7220E-16 8.9223E-17 0.0000E+00
 Far field            1.0800E+02 0.0000E+00 1.4089E-17 5.7220E-16 1.0800E+02 0.0000E+00
 Start2               1.0800E+02 4.1975E-17 6.7766E-07 9.4615E-08 1.0800E+02 0.0000E+00
 Start3               2.1600E+02 1.8377E-16 1.0800E+02 4.1590E-07 1.0800E+02 0.0000E+00
 After split          2.1600E+02 4.8071E-16 1.0800E+02 1.0897E-06 1.0800E+02 0.0000E+00
 SWT_Normal           2.1600E+02 0.0000E+00 1.0800E+02 0.0000E+00 1.0800E+02 0.0000E+00
 TRANSPORT ( OUT )                       
 End1                 1.0800E+02 1.2015E-33 1.0800E+02 6.8484E-15 5.1207E-15 0.0000E+00
 Near pipe            1.0800E+02 0.0000E+00 1.0800E+02 5.2559E-15 1.8420E-15 0.0000E+00
 Upstream pipe        1.0800E+02 0.0000E+00 1.0800E+02 2.0710E-15 4.3690E-16 0.0000E+00
 Start                1.0800E+02 0.0000E+00 1.0800E+02 1.1030E-15 8.9223E-17 0.0000E+00
 Far field            1.0800E+02 3.5230E-24 5.1254E-14 8.4096E-15 1.0800E+02 0.0000E+00
 Start2               1.0800E+02 1.8377E-16 3.0095E-06 4.1590E-07 1.0800E+02 0.0000E+00
 Start3               2.1600E+02 2.9788E-16 1.0800E+02 6.7468E-07 1.0800E+02 0.0000E+00
 After split          2.1600E+02 7.7209E-16 1.0800E+02 1.7517E-06 1.0800E+02 0.0000E+00
 SWT_Normal           2.1600E+02 1.5171E-15 1.0800E+02 3.4463E-06 1.0800E+02 0.0000E+00
 
  99.62% Completed


 DUMP OF INTERMEDIATE RESULTS IN SELECTED SEGMENTS
  TIME =  10D 23H  0M  0S .
 
 TOTAL MASS IN SYSTEM 5.8722E+03 2.9431E-15 2.9361E+03 6.6723E-06 2.9361E+03 0.0000E+00
 CHANGES BY PROCESSES 0.0000E+00 0.0000E+00 0.0000E+00 0.0000E+00 0.0000E+00 0.0000E+00
 CHANGES BY LOADS     0.0000E+00 0.0000E+00 0.0000E+00 0.0000E+00 0.0000E+00 0.0000E+00
 BOUNDARY INFLOWS     2.1600E+02 0.0000E+00 1.0800E+02 0.0000E+00 1.0800E+02 0.0000E+00
 BOUNDARY OUTFLOWS    2.1600E+02 1.1072E-15 1.0800E+02 2.5139E-06 1.0800E+02 0.0000E+00
                      Continuity cTR1       cTR2       cTR3       cTR4       cTR5       
                                                                                        
 CONCENTRATION                           
 End1                 1.0000E+00 6.5366E-36 1.0000E+00 6.3148E-17 3.8988E-17 0.0000E+00
 Near pipe            1.0000E+00 0.0000E+00 1.0000E+00 4.9270E-17 1.2967E-17 0.0000E+00
 Upstream pipe        1.0000E+00 0.0000E+00 1.0000E+00 1.9780E-17 4.2938E-18 0.0000E+00
 Start                1.0000E+00 0.0000E+00 1.0000E+00 7.6367E-18 2.5591E-18 0.0000E+00
 Far field            1.0000E+00 1.7935E-26 2.5898E-16 4.5801E-17 1.0000E+00 0.0000E+00
 Start2               1.0000E+00 1.0685E-18 1.7465E-08 2.4169E-09 1.0000E+00 0.0000E+00
 Start3               1.0000E+00 8.6870E-19 5.0000E-01 1.9664E-09 5.0000E-01 0.0000E+00
 After split          1.0000E+00 2.2666E-18 5.0000E-01 5.1392E-09 5.0000E-01 0.0000E+00
 SWT_Normal           1.0000E+00 5.0119E-19 5.0000E-01 1.1362E-09 5.0000E-01 0.0000E+00
 MASS                                    
 End1                 2.4983E+02 1.6331E-33 2.4983E+02 1.5776E-14 9.7406E-15 0.0000E+00
 Near pipe            2.4990E+02 0.0000E+00 2.4990E+02 1.2313E-14 3.2406E-15 0.0000E+00
 Upstream pipe        2.4991E+02 0.0000E+00 2.4991E+02 4.9431E-15 1.0731E-15 0.0000E+00
 Start                2.4992E+02 0.0000E+00 2.4992E+02 1.9085E-15 6.3956E-16 0.0000E+00
 Far field            2.4992E+02 4.4821E-24 6.4723E-14 1.1446E-14 2.4991E+02 0.0000E+00
 Start2               2.4983E+02 2.6694E-16 4.3635E-06 6.0381E-07 2.4983E+02 0.0000E+00
 Start3               2.4982E+02 2.1702E-16 1.2491E+02 4.9126E-07 1.2491E+02 0.0000E+00
 After split          2.4984E+02 5.6630E-16 1.2492E+02 1.2840E-06 1.2492E+02 0.0000E+00
 SWT_Normal           5.8722E+03 2.9431E-15 2.9361E+03 6.6723E-06 2.9361E+03 0.0000E+00
 PROCESSES                               
 End1                 0.0000E+00 0.0000E+00 0.0000E+00 0.0000E+00 0.0000E+00 0.0000E+00
 Near pipe            0.0000E+00 0.0000E+00 0.0000E+00 0.0000E+00 0.0000E+00 0.0000E+00
 Upstream pipe        0.0000E+00 0.0000E+00 0.0000E+00 0.0000E+00 0.0000E+00 0.0000E+00
 Start                0.0000E+00 0.0000E+00 0.0000E+00 0.0000E+00 0.0000E+00 0.0000E+00
 Far field            0.0000E+00 0.0000E+00 0.0000E+00 0.0000E+00 0.0000E+00 0.0000E+00
 Start2               0.0000E+00 0.0000E+00 0.0000E+00 0.0000E+00 0.0000E+00 0.0000E+00
 Start3               0.0000E+00 0.0000E+00 0.0000E+00 0.0000E+00 0.0000E+00 0.0000E+00
 After split          0.0000E+00 0.0000E+00 0.0000E+00 0.0000E+00 0.0000E+00 0.0000E+00
 SWT_Normal           0.0000E+00 0.0000E+00 0.0000E+00 0.0000E+00 0.0000E+00 0.0000E+00
 LOADS ( IN )                            
 End1                 0.0000E+00 0.0000E+00 0.0000E+00 0.0000E+00 0.0000E+00 0.0000E+00
 Near pipe            0.0000E+00 0.0000E+00 0.0000E+00 0.0000E+00 0.0000E+00 0.0000E+00
 Upstream pipe        0.0000E+00 0.0000E+00 0.0000E+00 0.0000E+00 0.0000E+00 0.0000E+00
 Start                0.0000E+00 0.0000E+00 0.0000E+00 0.0000E+00 0.0000E+00 0.0000E+00
 Far field            0.0000E+00 0.0000E+00 0.0000E+00 0.0000E+00 0.0000E+00 0.0000E+00
 Start2               0.0000E+00 0.0000E+00 0.0000E+00 0.0000E+00 0.0000E+00 0.0000E+00
 Start3               0.0000E+00 0.0000E+00 0.0000E+00 0.0000E+00 0.0000E+00 0.0000E+00
 After split          0.0000E+00 0.0000E+00 0.0000E+00 0.0000E+00 0.0000E+00 0.0000E+00
 SWT_Normal           0.0000E+00 0.0000E+00 0.0000E+00 0.0000E+00 0.0000E+00 0.0000E+00
 LOADS ( OUT )                           
 End1                 0.0000E+00 0.0000E+00 0.0000E+00 0.0000E+00 0.0000E+00 0.0000E+00
 Near pipe            0.0000E+00 0.0000E+00 0.0000E+00 0.0000E+00 0.0000E+00 0.0000E+00
 Upstream pipe        0.0000E+00 0.0000E+00 0.0000E+00 0.0000E+00 0.0000E+00 0.0000E+00
 Start                0.0000E+00 0.0000E+00 0.0000E+00 0.0000E+00 0.0000E+00 0.0000E+00
 Far field            0.0000E+00 0.0000E+00 0.0000E+00 0.0000E+00 0.0000E+00 0.0000E+00
 Start2               0.0000E+00 0.0000E+00 0.0000E+00 0.0000E+00 0.0000E+00 0.0000E+00
 Start3               0.0000E+00 0.0000E+00 0.0000E+00 0.0000E+00 0.0000E+00 0.0000E+00
 After split          0.0000E+00 0.0000E+00 0.0000E+00 0.0000E+00 0.0000E+00 0.0000E+00
 SWT_Normal           0.0000E+00 0.0000E+00 0.0000E+00 0.0000E+00 0.0000E+00 0.0000E+00
 TRANSPORT ( IN )                        
 End1                 1.0800E+02 9.3999E-35 1.0800E+02 6.7475E-15 3.8092E-15 0.0000E+00
 Near pipe            1.0800E+02 0.0000E+00 1.0800E+02 3.9685E-15 6.2425E-16 0.0000E+00
 Upstream pipe        1.0800E+02 0.0000E+00 1.0800E+02 1.8140E-15 8.9223E-17 0.0000E+00
 Start                1.0800E+02 0.0000E+00 1.0800E+02 5.9621E-16 8.9223E-17 0.0000E+00
 Far field            1.0800E+02 0.0000E+00 1.1231E-16 5.9621E-16 1.0800E+02 0.0000E+00
 Start2               1.0800E+02 2.9979E-17 4.8347E-07 6.7553E-08 1.0800E+02 0.0000E+00
 Start3               2.1600E+02 1.3275E-16 1.0800E+02 3.0032E-07 1.0800E+02 0.0000E+00
 After split          2.1600E+02 3.4879E-16 1.0800E+02 7.9032E-07 1.0800E+02 0.0000E+00
 SWT_Normal           2.1600E+02 0.0000E+00 1.0800E+02 0.0000E+00 1.0800E+02 0.0000E+00
 TRANSPORT ( OUT )                       
 End1                 1.0800E+02 8.2879E-34 1.0800E+02 6.7788E-15 4.5586E-15 0.0000E+00
 Near pipe            1.0800E+02 0.0000E+00 1.0800E+02 5.2800E-15 1.3736E-15 0.0000E+00
 Upstream pipe        1.0800E+02 0.0000E+00 1.0800E+02 2.0950E-15 3.4322E-16 0.0000E+00
 Start                1.0800E+02 0.0000E+00 1.0800E+02 7.8356E-16 8.9223E-17 0.0000E+00
 Far field            1.0800E+02 2.3211E-24 3.3452E-14 5.5610E-15 1.0800E+02 0.0000E+00
 Start2               1.0800E+02 1.3275E-16 2.1712E-06 3.0032E-07 1.0800E+02 0.0000E+00
 Start3               2.1600E+02 2.1565E-16 1.0800E+02 4.8824E-07 1.0800E+02 0.0000E+00
 After split          2.1600E+02 5.6154E-16 1.0800E+02 1.2734E-06 1.0800E+02 0.0000E+00
 SWT_Normal           2.1600E+02 1.1072E-15 1.0800E+02 2.5139E-06 1.0800E+02 0.0000E+00
 

 REWIND ON       UNIT:  23, READING: ..\WORK\Area.dat
 AT SIMULATION TIME:   11D  0H  0M  0S !
 TIME IN FILE:         11D  0H  0M  0S !

 REWIND ON       UNIT:  24, READING: ..\WORK\Flow.dat
 AT SIMULATION TIME:   11D  0H  0M  0S !
 TIME IN FILE:         11D  0H  0M  0S !
1
                                             Water quality calculation Sobek-WQ      
                                                                                     
                                                                                     
                                             T0: 2010.01.01 00:00:00  (scu=       1s)
 100.00% Completed


 DUMP OF INTERMEDIATE RESULTS IN SELECTED SEGMENTS
  TIME =  11D  0H  0M  0S .
 
 TOTAL MASS IN SYSTEM 5.8722E+03 2.1361E-15 2.9361E+03 4.8408E-06 2.9361E+03 0.0000E+00
 CHANGES BY PROCESSES 0.0000E+00 0.0000E+00 0.0000E+00 0.0000E+00 0.0000E+00 0.0000E+00
 CHANGES BY LOADS     0.0000E+00 0.0000E+00 0.0000E+00 0.0000E+00 0.0000E+00 0.0000E+00
 BOUNDARY INFLOWS     2.1600E+02 0.0000E+00 1.0800E+02 0.0000E+00 1.0800E+02 0.0000E+00
 BOUNDARY OUTFLOWS    2.1600E+02 8.0697E-16 1.0800E+02 1.8314E-06 1.0800E+02 0.0000E+00
                      Continuity cTR1       cTR2       cTR3       cTR4       cTR5       
                                                                                        
 CONCENTRATION                           
 End1                 1.0000E+00 4.5066E-36 1.0000E+00 6.9671E-17 3.5519E-17 0.0000E+00
 Near pipe            1.0000E+00 0.0000E+00 1.0000E+00 5.2324E-17 7.7633E-18 0.0000E+00
 Upstream pipe        1.0000E+00 0.0000E+00 1.0000E+00 2.2834E-17 4.2938E-18 0.0000E+00
 Start                1.0000E+00 0.0000E+00 1.0000E+00 1.0691E-17 2.5591E-18 0.0000E+00
 Far field            1.0000E+00 1.1816E-26 1.6241E-16 3.3242E-17 1.0000E+00 0.0000E+00
 Start2               1.0000E+00 7.7067E-19 1.2582E-08 1.7426E-09 1.0000E+00 0.0000E+00
 Start3               1.0000E+00 6.2791E-19 5.0000E-01 1.4208E-09 5.0000E-01 0.0000E+00
 After split          1.0000E+00 1.6457E-18 5.0000E-01 3.7299E-09 5.0000E-01 0.0000E+00
 SWT_Normal           1.0000E+00 3.6377E-19 5.0000E-01 8.2436E-10 5.0000E-01 0.0000E+00
 MASS                                    
 End1                 2.4983E+02 1.1259E-33 2.4983E+02 1.7406E-14 8.8738E-15 0.0000E+00
 Near pipe            2.4990E+02 0.0000E+00 2.4990E+02 1.3076E-14 1.9400E-15 0.0000E+00
 Upstream pipe        2.4991E+02 0.0000E+00 2.4991E+02 5.7063E-15 1.0731E-15 0.0000E+00
 Start                2.4992E+02 0.0000E+00 2.4992E+02 2.6718E-15 6.3956E-16 0.0000E+00
 Far field            2.4992E+02 2.9529E-24 4.0590E-14 8.3077E-15 2.4991E+02 0.0000E+00
 Start2               2.4983E+02 1.9254E-16 3.1433E-06 4.3536E-07 2.4983E+02 0.0000E+00
 Start3               2.4982E+02 1.5686E-16 1.2491E+02 3.5496E-07 1.2491E+02 0.0000E+00
 After split          2.4984E+02 4.1117E-16 1.2492E+02 9.3187E-07 1.2492E+02 0.0000E+00
 SWT_Normal           5.8722E+03 2.1361E-15 2.9361E+03 4.8408E-06 2.9361E+03 0.0000E+00
 PROCESSES                               
 End1                 0.0000E+00 0.0000E+00 0.0000E+00 0.0000E+00 0.0000E+00 0.0000E+00
 Near pipe            0.0000E+00 0.0000E+00 0.0000E+00 0.0000E+00 0.0000E+00 0.0000E+00
 Upstream pipe        0.0000E+00 0.0000E+00 0.0000E+00 0.0000E+00 0.0000E+00 0.0000E+00
 Start                0.0000E+00 0.0000E+00 0.0000E+00 0.0000E+00 0.0000E+00 0.0000E+00
 Far field            0.0000E+00 0.0000E+00 0.0000E+00 0.0000E+00 0.0000E+00 0.0000E+00
 Start2               0.0000E+00 0.0000E+00 0.0000E+00 0.0000E+00 0.0000E+00 0.0000E+00
 Start3               0.0000E+00 0.0000E+00 0.0000E+00 0.0000E+00 0.0000E+00 0.0000E+00
 After split          0.0000E+00 0.0000E+00 0.0000E+00 0.0000E+00 0.0000E+00 0.0000E+00
 SWT_Normal           0.0000E+00 0.0000E+00 0.0000E+00 0.0000E+00 0.0000E+00 0.0000E+00
 LOADS ( IN )                            
 End1                 0.0000E+00 0.0000E+00 0.0000E+00 0.0000E+00 0.0000E+00 0.0000E+00
 Near pipe            0.0000E+00 0.0000E+00 0.0000E+00 0.0000E+00 0.0000E+00 0.0000E+00
 Upstream pipe        0.0000E+00 0.0000E+00 0.0000E+00 0.0000E+00 0.0000E+00 0.0000E+00
 Start                0.0000E+00 0.0000E+00 0.0000E+00 0.0000E+00 0.0000E+00 0.0000E+00
 Far field            0.0000E+00 0.0000E+00 0.0000E+00 0.0000E+00 0.0000E+00 0.0000E+00
 Start2               0.0000E+00 0.0000E+00 0.0000E+00 0.0000E+00 0.0000E+00 0.0000E+00
 Start3               0.0000E+00 0.0000E+00 0.0000E+00 0.0000E+00 0.0000E+00 0.0000E+00
 After split          0.0000E+00 0.0000E+00 0.0000E+00 0.0000E+00 0.0000E+00 0.0000E+00
 SWT_Normal           0.0000E+00 0.0000E+00 0.0000E+00 0.0000E+00 0.0000E+00 0.0000E+00
 LOADS ( OUT )                           
 End1                 0.0000E+00 0.0000E+00 0.0000E+00 0.0000E+00 0.0000E+00 0.0000E+00
 Near pipe            0.0000E+00 0.0000E+00 0.0000E+00 0.0000E+00 0.0000E+00 0.0000E+00
 Upstream pipe        0.0000E+00 0.0000E+00 0.0000E+00 0.0000E+00 0.0000E+00 0.0000E+00
 Start                0.0000E+00 0.0000E+00 0.0000E+00 0.0000E+00 0.0000E+00 0.0000E+00
 Far field            0.0000E+00 0.0000E+00 0.0000E+00 0.0000E+00 0.0000E+00 0.0000E+00
 Start2               0.0000E+00 0.0000E+00 0.0000E+00 0.0000E+00 0.0000E+00 0.0000E+00
 Start3               0.0000E+00 0.0000E+00 0.0000E+00 0.0000E+00 0.0000E+00 0.0000E+00
 After split          0.0000E+00 0.0000E+00 0.0000E+00 0.0000E+00 0.0000E+00 0.0000E+00
 SWT_Normal           0.0000E+00 0.0000E+00 0.0000E+00 0.0000E+00 0.0000E+00 0.0000E+00
 TRANSPORT ( IN )                        
 End1                 1.0800E+02 6.4341E-35 1.0800E+02 6.9703E-15 3.4345E-15 0.0000E+00
 Near pipe            1.0800E+02 0.0000E+00 1.0800E+02 4.2537E-15 2.5342E-16 0.0000E+00
 Upstream pipe        1.0800E+02 0.0000E+00 1.0800E+02 1.7556E-15 8.9213E-17 0.0000E+00
 Start                1.0800E+02 0.0000E+00 1.0800E+02 7.5648E-16 8.9213E-17 0.0000E+00
 Far field            1.0800E+02 0.0000E+00 8.5035E-17 7.5648E-16 1.0800E+02 0.0000E+00
 Start2               1.0800E+02 2.1391E-17 3.4461E-07 4.8188E-08 1.0800E+02 0.0000E+00
 Start3               2.1600E+02 9.5792E-17 1.0800E+02 2.1664E-07 1.0800E+02 0.0000E+00
 After split          2.1600E+02 2.5279E-16 1.0800E+02 5.7257E-07 1.0800E+02 0.0000E+00
 SWT_Normal           2.1600E+02 0.0000E+00 1.0800E+02 0.0000E+00 1.0800E+02 0.0000E+00
 TRANSPORT ( OUT )                       
 End1                 1.0800E+02 5.7149E-34 1.0800E+02 7.0327E-15 3.8092E-15 0.0000E+00
 Near pipe            1.0800E+02 0.0000E+00 1.0800E+02 5.3778E-15 1.0926E-15 0.0000E+00
 Upstream pipe        1.0800E+02 0.0000E+00 1.0800E+02 2.2553E-15 3.4321E-16 0.0000E+00
 Start                1.0800E+02 0.0000E+00 1.0800E+02 9.1257E-16 8.9213E-17 0.0000E+00
 Far field            1.0800E+02 1.5292E-24 2.1947E-14 4.0038E-15 1.0800E+02 0.0000E+00
 Start2               1.0800E+02 9.5792E-17 1.5647E-06 2.1664E-07 1.0800E+02 0.0000E+00
 Start3               2.1600E+02 1.5595E-16 1.0800E+02 3.5294E-07 1.0800E+02 0.0000E+00
 After split          2.1600E+02 4.0792E-16 1.0800E+02 9.2469E-07 1.0800E+02 0.0000E+00
 SWT_Normal           2.1600E+02 8.0697E-16 1.0800E+02 1.8314E-06 1.0800E+02 0.0000E+00
 
 
 Simulation ended normal
 Execution stop : 2012/01/18 15:16:04 
