 Delft3D-WAQ version  4.5212 17-06-2011
 Only to be used by SOBEK licensee                          
 (c) Deltares
 Execution start: 2012/01/18 15:15:58 
       ----------> Version number of the input file is: 4.910
       ----------> Output level of the listfile is: 9


 Model :            Water quality calculation Sobek-WQ      
                                                            

 Including file: \S212003\WQ_OEF1.LIT\WORK\DELWAQ4.INP                                                                                                                                                                                                                                                                                                                                                                                                                                                                                                                                                                                                                                                                                                                                                                                                                                                                                                                                                                                                   


 Run   :                                                    
                    T0: 2010.01.01 00:00:00  (scu=       1s)

 Intermediate version absolute timer detected !
 System clock is     1 seconds !

 Closing file: \S212003\WQ_OEF1.LIT\WORK\DELWAQ4.INP                                         

 Continuing on file: delwaq.inp                                                                    

 Including file: \S212003\WQ_OEF1.LIT\WORK\SUBSTANC.DWQ                                                                                                                                                                                                                                                                                                                                                                                                                                                                                                                                                                                                                                                                                                                                                                                                                                                                                                                                                                                                  

 Closing file: \S212003\WQ_OEF1.LIT\WORK\SUBSTANC.DWQ                                        

 Continuing on file: delwaq.inp                                                                    

 Number of active constituents   :  6
 Number of inactive constituents :  0
 Total number of constituents    :  6
 Number   name
    1     Continuity          
    2     cTR1                
    3     cTR2                
    4     cTR3                
    5     cTR4                
    6     cTR5                

 *********************************************************** B L O C K - 1 *****


 Including file: \S212003\WQ_OEF1.LIT\WORK\DELWAQ1.INP                                                                                                                                                                                                                                                                                                                                                                                                                                                                                                                                                                                                                                                                                                                                                                                                                                                                                                                                                                                                   


 Factor between two clocks :       86400
 System clock in date-format  DDHHMMSS 
 Auxiliary timer in date-format DDHHMMSS 

 The auxiliary timer is not equal to the system timer.
 All the process fluxes will be scaled from the auxiliary timer to the system timer.

 Integration option :               15.73
 Start of simulation : 0Y-  0D- 0H- 0M- 0S.
 End of simulation   : 0Y- 11D- 0H- 0M- 0S.
 Selected option for time step size :  0
 Integration time stepsize is : 0Y-  0D- 0H-10M- 0S.

 Closing file: \S212003\WQ_OEF1.LIT\WORK\DELWAQ1.INP                                         

 Continuing on file: delwaq.inp                                                                    

 Dump areas:
 option selected for input : 1
 Information from the standard input file.

 Including file: \S212003\WQ_OEF1.LIT\6\OUTLOCWQ.DAT                                                                                                                                                                                                                                                                                                                                                                                                                                                                                                                                                                                                                                                                                                                                                                                                                                                                                                                                                                                                     

 Including file: ..\work\monitor.dat                                                                                                                                                                                                                                                                                                                                                                                                                                                                                                                                                                                                                                                                                                                                                                                                                                                                                                                                                                                                                     

 Number of dump areas :    9

 Dump area :    1 : End1                
 Number of segments in area :              1
          number   segment
              1              1

 Dump area :    2 : Near pipe           
 Number of segments in area :              1
          number   segment
              1              5

 Dump area :    3 : Upstream pipe       
 Number of segments in area :              1
          number   segment
              1              7

 Dump area :    4 : Start               
 Number of segments in area :              1
          number   segment
              1              9

 Dump area :    5 : Far field           
 Number of segments in area :              1
          number   segment
              1             12

 Dump area :    6 : Start2              
 Number of segments in area :              1
          number   segment
              1             20

 Dump area :    7 : Start3              
 Number of segments in area :              1
          number   segment
              1             21

 Dump area :    8 : After split         
 Number of segments in area :              1
          number   segment
              1             23

 Dump area :    9 : SWT_Normal          
 Number of segments in area :             25
          number   segment
              1              1
              2              2
              3              3
              4              4
              5              5
              6              6
              7              7
              8              8
              9              9
             10             10
             11             11
             12             12
             13             13
             14             14
             15             15
             16             16
             17             17
             18             18
             19             19
             20             20
             21             21
             22             22
             23             23
             24             24
             25             25

 Closing file: ..\work\monitor.dat                                                           

 Continuing on file: \S212003\WQ_OEF1.LIT\6\OUTLOCWQ.DAT                                           

 Closing file: \S212003\WQ_OEF1.LIT\6\OUTLOCWQ.DAT                                           

 Continuing on file: delwaq.inp                                                                    

 Transects:
 option selected for input : 2
 No transects used.

 Including file: \S212003\WQ_OEF1.LIT\WORK\DELWAQ2.INP                                                                                                                                                                                                                                                                                                                                                                                                                                                                                                                                                                                                                                                                                                                                                                                                                                                                                                                                                                                                   


 Monitoring  timings :
 Start time : 0Y-  0D- 0H- 0M- 0S 
 Stop time  : 0Y- 11D- 0H- 0M- 0S 
 Time step  : 0Y-  0D- 1H- 0M- 0S 


 Output      timings :
 Start time : 0Y-  0D- 0H- 0M- 0S 
 Stop time  : 0Y- 11D- 0H- 0M- 0S 
 Time step  : 0Y-  0D- 2H- 0M- 0S 


 History     timings :
 Start time : 0Y-  0D- 0H- 0M- 0S 
 Stop time  : 0Y- 11D- 0H- 0M- 0S 
 Time step  : 0Y-  0D- 0H-10M- 0S 

 Closing file: \S212003\WQ_OEF1.LIT\WORK\DELWAQ2.INP                                         

 Continuing on file: delwaq.inp                                                                    

 *********************************************************** B L O C K - 2 *****


 Including file: ..\WORK\nrofsegm.dat                                                                                                                                                                                                                                                                                                                                                                                                                                                                                                                                                                                                                                                                                                                                                                                                                                                                                                                                                                                                                    


 Number of segments :             25

 Closing file: ..\WORK\nrofsegm.dat                                                          

 Continuing on file: delwaq.inp                                                                    

 NO process decomposition selected

 option selected for grid layout : 2
 Grid layout not used.

  0 blocks of time independent attribute contribution

 option for time dependent attributes   0
 NO time dependent attributes
 No first attribute set, using default 1
 No second attribute set, using default 0

 Volumes:

 Including file: flowfil.mod                                                                                                                                                                                                                                                                                                                                                                                                                                                                                                                                                                                                                                                                                                                                                                                                                                                                                                                                                                                                                             

 First  selected option   :      -2

 Closing file: flowfil.mod                                                                   

 Continuing on file: delwaq.inp                                                                    

 Information from unformatted intermediate file.
 Filename is: ..\WORK\Volume.dat                                                                                                                                                                                                                                             
 WARNING file does not exist.
 Filename: ..\WORK\Volume.dat                                                                                                                                                                                                                                             

 *********************************************************** B L O C K - 3 *****


 Including file: ..\WORK\nrofexch.dat                                                                                                                                                                                                                                                                                                                                                                                                                                                                                                                                                                                                                                                                                                                                                                                                                                                                                                                                                                                                                    


 Dimensions of the system :
 Number of exchanges 1st direction :      28
 Number of exchanges 2nd direction :       0
 Number of exchanges 3rd direction :       0
 Total number of exchanges         :      28

 Closing file: ..\WORK\nrofexch.dat                                                          

 Continuing on file: delwaq.inp                                                                    

 Number of dispersion arrays       :       1

 Including file: \S212003\WQ_OEF1.LIT\6\DISPERSW.DAT                                                                                                                                                                                                                                                                                                                                                                                                                                                                                                                                                                                                                                                                                                                                                                                                                                                                                                                                                                                                     

 Item nr:       names:
     1          Dispersion          
 

 Closing file: \S212003\WQ_OEF1.LIT\6\DISPERSW.DAT                                           

 Continuing on file: delwaq.inp                                                                    

 Number of velocity arrays         :       0
 System dispersion velocity
   nr.      nr.      nr.   
     1        1        0
     2        1        0
     3        1        0
     4        1        0
     5        1        0
     6        1        0

 Input option                      :       1

 Option selected for pointers      :      -1

 Including file: ..\WORK\Pointer.dat                                                                                                                                                                                                                                            

           First direction :
   Item nr.  From      To  From-1    To+1
       1       1      21       2      22
       2       1      20       2      19
       3      21      20      22      19
       4       2       1       3      20
       5       3       2       4       1
       6       4       3       5       2
       7       5       4       6       3
       8       6       5       7       4
       9       7       6       8       5
      10       8       7       9       6
      11       9       8      10       7
      12      10       9       0       8
      13      12      11      13       0
      14      13      12      14      11
      15      14      13      15      12
      16      15      14      16      13
      17      16      15      17      14
      18      17      16      18      15
      19      18      17      19      16
      20      19      18      20      17
      21      20      19      21      18
      22      22      21      23      20
      23      23      22      24      21
      24      24      23      25      22
      25      25      24       0      23
      26      -1      10      -1       9
      27      -2      11      -2      12
      28      -3      25      -3      24

 Number of boundaries  :   3


 boundary  exchange    from        to
  number    number    segment    segment
      1        26        -1        10
      2        27        -2        11
      3        28        -3        25

 Size of the big matrix for fast solvers is:         53

 Dispersion:

 Closing file: ..\WORK\Pointer.dat                                                           

 Continuing on file: delwaq.inp                                                                    

 Including file: \S212003\WQ_OEF1.LIT\WORK\DELWAQ3.INP                                                                                                                                                                                                                                                                                                                                                                                                                                                                                                                                                                                                                                                                                                                                                                                                                                                                                                                                                                                                   

 First  selected option   :       1
 Information from the standard input file.
 Constant values without defaults 

 Scale factors:
                 1           2           3
              1.0000E+00  1.0000E+00  1.0000E+00
 Unscaled values:
         1    0.0000E+00  0.0000E+00  0.0000E+00

 Closing file: \S212003\WQ_OEF1.LIT\WORK\DELWAQ3.INP                                         

 Continuing on file: delwaq.inp                                                                    

 Including file: ..\work\disperx.dat                                                                                                                                                                                                                                                                                                                                                                                                                                                                                                                                                                                                                                                                                                                                                                                                                                                                                                                                                                                                                     
 Second selected option   :       1

 First  direction:
 Constant values without defaults 

 Scale factors:
                 1
              1.0000E+00
 Unscaled values:
         1    0.0000E+00
         2    0.0000E+00
         3    0.0000E+00
         4    0.0000E+00
         5    0.0000E+00
         6    0.0000E+00
         7    0.0000E+00
         8    0.0000E+00
         9    0.0000E+00
        10    0.0000E+00
        11    0.0000E+00
        12    0.0000E+00
        13    0.0000E+00
        14    0.0000E+00
        15    0.0000E+00
        16    0.0000E+00
        17    0.0000E+00
        18    0.0000E+00
        19    0.0000E+00
        20    0.0000E+00
        21    0.0000E+00
        22    0.0000E+00
        23    0.0000E+00
        24    0.0000E+00
        25    0.0000E+00
        26    0.0000E+00
        27    0.0000E+00
        28    0.0000E+00

 Area:

 Closing file: ..\work\disperx.dat                                                           

 Continuing on file: delwaq.inp                                                                    

 Including file: flowfil.mod                                                                                                                                                                                                                                                                                                                                                                                                                                                                                                                                                                                                                                                                                                                                                                                                                                                                                                                                                                                                                             

 First  selected option   :      -2

 Closing file: flowfil.mod                                                                   

 Continuing on file: delwaq.inp                                                                    

 Information from unformatted intermediate file.
 Filename is: ..\WORK\Area.dat                                                                                                                                                                                                                                               
 WARNING file does not exist.
 Filename: ..\WORK\Area.dat                                                                                                                                                                                                                                               

 Flows:

 Including file: flowfil.mod                                                                                                                                                                                                                                                                                                                                                                                                                                                                                                                                                                                                                                                                                                                                                                                                                                                                                                                                                                                                                             

 First  selected option   :      -2

 Closing file: flowfil.mod                                                                   

 Continuing on file: delwaq.inp                                                                    

 Information from unformatted intermediate file.
 Filename is: ..\WORK\Flow.dat                                                                                                                                                                                                                                               
 WARNING file does not exist.
 Filename: ..\WORK\Flow.dat                                                                                                                                                                                                                                               

 Lengths:
 Option for lengths          :      1
 Lengths variable over the area.

 First  selected option   :       0

 Information from unformatted intermediate file.
 Filename is: ..\WORK\Length.dat                                                                                                                                                                                                                                             
 WARNING file does not exist.
 Filename: ..\WORK\Length.dat                                                                                                                                                                                                                                             

 *********************************************************** B L O C K - 4 *****


 Boundary-IDs:       boundary-names:                         boundary-types:


 Including file: ..\WORK\Boundwq.id                                                                                                                                                                                                                                                                                                                                                                                                                                                                                                                                                                                                                                                                                                                                                                                                                                                                                                                                                                                                                      
n11                     1                                   Boundary Flow       
n12                     2                                   Boundary Flow       
n26                     3                                   Boundary Flow       
 
 Number of different boundary types:    1
 Type:  Type-string
     1  Boundary Flow       
 

 Closing file: ..\WORK\Boundwq.id                                                            

 Continuing on file: delwaq.inp                                                                    

 Including file: ..\work\tatcherharlemen.wq                                                                                                                                                                                                                                                                                                                                                                                                                                                                                                                                                                                                                                                                                                                                                                                                                                                                                                                                                                                                              

 Time lag option:  0
 No time lags

 Boundary concentrations

 Closing file: ..\work\tatcherharlemen.wq                                                    

 Continuing on file: delwaq.inp                                                                    

 Including file: \S212003\WQ_OEF1.LIT\WORK\BOUNDWQ.TYP                                                                                                                                                                                                                                                                                                                                                                                                                                                                                                                                                                                                                                                                                                                                                                                                                                                                                                                                                                                                   

 Closing file: \S212003\WQ_OEF1.LIT\WORK\BOUNDWQ.TYP                                         

 Continuing on file: delwaq.inp                                                                    

 Including file: \S212003\WQ_OEF1.LIT\WORK\BOUNDWQ.DAT                                                                                                                                                                                                                                                                                                                                                                                                                                                                                                                                                                                                                                                                                                                                                                                                                                                                                                                                                                                                   

 BLOCKED per ITEM:
 Input BOUNDARIES nr:    1 is BOUNDARIES nr:    1 with ID  : n11                  and local substitution: n11                 

 CONCENTRATIONs within the item blocks:
 Input CONCENTR.  nr:    1 is CONCENTR.  nr:    1 with ID  : Continuity           and local substitution: Continuity          
 Input CONCENTR.  nr:    2 is CONCENTR.  nr:    2 with ID  : cTR1                 and local substitution: cTR1                
 Input CONCENTR.  nr:    3 is CONCENTR.  nr:    3 with ID  : cTR2                 and local substitution: cTR2                
 Input CONCENTR.  nr:    4 is CONCENTR.  nr:    4 with ID  : cTR3                 and local substitution: cTR3                
 Input CONCENTR.  nr:    5 is CONCENTR.  nr:    5 with ID  : cTR4                 and local substitution: cTR4                
 Input CONCENTR.  nr:    6 is CONCENTR.  nr:    6 with ID  : cTR5                 and local substitution: cTR5                
 
 Column:  1 contains: Continuity                               Status: used    
 Column:  2 contains: cTR1                                     Status: used    
 Column:  3 contains: cTR2                                     Status: used    
 Column:  4 contains: cTR3                                     Status: used    
 Column:  5 contains: cTR4                                     Status: used    
 Column:  6 contains: cTR5                                     Status: used    

 DATA grouped in         1 blocks of         6 Substance 
 Constant values in this block.
 Substance      1           2           3           4           5
 boundary     Continuity  cTR1        cTR2        cTR3        cTR4        
         1    1.0000E+00  0.0000E+00  1.0000E+00  0.0000E+00  0.0000E+00
 Substance      6
 boundary     cTR5        
         1    0.0000E+00

 ====> input item completed <==== 



 BLOCKED per ITEM:
 Input BOUNDARIES nr:    1 is BOUNDARIES nr:    2 with ID  : n12                  and local substitution: n12                 

 CONCENTRATIONs within the item blocks:
 Input CONCENTR.  nr:    1 is CONCENTR.  nr:    1 with ID  : Continuity           and local substitution: Continuity          
 Input CONCENTR.  nr:    2 is CONCENTR.  nr:    2 with ID  : cTR1                 and local substitution: cTR1                
 Input CONCENTR.  nr:    3 is CONCENTR.  nr:    3 with ID  : cTR2                 and local substitution: cTR2                
 Input CONCENTR.  nr:    4 is CONCENTR.  nr:    4 with ID  : cTR3                 and local substitution: cTR3                
 Input CONCENTR.  nr:    5 is CONCENTR.  nr:    5 with ID  : cTR4                 and local substitution: cTR4                
 Input CONCENTR.  nr:    6 is CONCENTR.  nr:    6 with ID  : cTR5                 and local substitution: cTR5                
 
 Column:  1 contains: Continuity                               Status: used    
 Column:  2 contains: cTR1                                     Status: used    
 Column:  3 contains: cTR2                                     Status: used    
 Column:  4 contains: cTR3                                     Status: used    
 Column:  5 contains: cTR4                                     Status: used    
 Column:  6 contains: cTR5                                     Status: used    

 DATA grouped in         1 blocks of         6 Substance 
 Constant values in this block.
 Substance      1           2           3           4           5
 boundary     Continuity  cTR1        cTR2        cTR3        cTR4        
         2    1.0000E+00  0.0000E+00  0.0000E+00  0.0000E+00  1.0000E+00
 Substance      6
 boundary     cTR5        
         2    0.0000E+00

 ====> input item completed <==== 



 BLOCKED per ITEM:
 Input BOUNDARIES nr:    1 is BOUNDARIES nr:    3 with ID  : n26                  and local substitution: n26                 

 CONCENTRATIONs within the item blocks:
 Input CONCENTR.  nr:    1 is CONCENTR.  nr:    1 with ID  : Continuity           and local substitution: Continuity          
 Input CONCENTR.  nr:    2 is CONCENTR.  nr:    2 with ID  : cTR1                 and local substitution: cTR1                
 Input CONCENTR.  nr:    3 is CONCENTR.  nr:    3 with ID  : cTR2                 and local substitution: cTR2                
 Input CONCENTR.  nr:    4 is CONCENTR.  nr:    4 with ID  : cTR3                 and local substitution: cTR3                
 Input CONCENTR.  nr:    5 is CONCENTR.  nr:    5 with ID  : cTR4                 and local substitution: cTR4                
 Input CONCENTR.  nr:    6 is CONCENTR.  nr:    6 with ID  : cTR5                 and local substitution: cTR5                
 
 Column:  1 contains: Continuity                               Status: used    
 Column:  2 contains: cTR1                                     Status: used    
 Column:  3 contains: cTR2                                     Status: used    
 Column:  4 contains: cTR3                                     Status: used    
 Column:  5 contains: cTR4                                     Status: used    
 Column:  6 contains: cTR5                                     Status: used    

 DATA grouped in         1 blocks of         6 Substance 
 Constant values in this block.
 Substance      1           2           3           4           5
 boundary     Continuity  cTR1        cTR2        cTR3        cTR4        
         3    1.0000E+00  0.0000E+00  0.0000E+00  1.0000E+00  0.0000E+00
 Substance      6
 boundary     cTR5        
         3    0.0000E+00

 ====> input item completed <==== 



 Closing file: \S212003\WQ_OEF1.LIT\WORK\BOUNDWQ.DAT                                         

 Continuing on file: delwaq.inp                                                                    

 Including file: ..\work\em2wq.dat                                                                                                                                                                                                                                                                                                                                                                                                                                                                                                                                                                                                                                                                                                                                                                                                                                                                                                                                                                                                                       

 Closing file: ..\work\em2wq.dat                                                             

 Continuing on file: delwaq.inp                                                                    

 Including file: \S212003\FIXED\RSDUMMY.DUM                                                                                                                                                                                                                                                                                                                                                                                                                                                                                                                                                                                                                                                                                                                                                                                                                                                                                                                                                                                                              

 Closing file: \S212003\FIXED\RSDUMMY.DUM                                                    

 Continuing on file: delwaq.inp                                                                    

 *********************************************************** B L O C K - 5 *****


 Including file: ..\WORK\nrofDWL.dat                                                                                                                                                                                                                                                                                                                                                                                                                                                                                                                                                                                                                                                                                                                                                                                                                                                                                                                                                                                                                     

 No waste loads 

 Closing file: ..\WORK\nrofDWL.dat                                                           

 Continuing on file: delwaq.inp                                                                    

 Including file: ..\WORK\Loadswq.id                                                                                                                                                                                                                                                                                                                                                                                                                                                                                                                                                                                                                                                                                                                                                                                                                                                                                                                                                                                                                      

 Closing file: ..\WORK\Loadswq.id                                                            

 Continuing on file: delwaq.inp                                                                    

 Including file: \S212003\WQ_OEF1.LIT\WORK\LOADSWQ.TYP                                                                                                                                                                                                                                                                                                                                                                                                                                                                                                                                                                                                                                                                                                                                                                                                                                                                                                                                                                                                   

 Closing file: \S212003\WQ_OEF1.LIT\WORK\LOADSWQ.TYP                                         

 Continuing on file: delwaq.inp                                                                    

 Including file: \S212003\WQ_OEF1.LIT\WORK\LOADSWQ.DAT                                                                                                                                                                                                                                                                                                                                                                                                                                                                                                                                                                                                                                                                                                                                                                                                                                                                                                                                                                                                   

 Closing file: \S212003\WQ_OEF1.LIT\WORK\LOADSWQ.DAT                                         

 Continuing on file: delwaq.inp                                                                    

 *********************************************************** B L O C K - 6 *****

 Input constant   nr:    1 is constant   nr:    1 with ID  : Iteration report    
 constant values in this block.
 values         1
 constants    Iteration   
         1    0.0000E+00

 ====> input item completed <==== 


 Input constant   nr:    1 is constant   nr:    2 with ID  : ONLY_ACTIVE         
 constant values in this block.
 values         2
 constants    ONLY_ACTIV  
         1    0.0000E+00

 ====> input item completed <==== 



 Including file: \S212003\WQ_OEF1.LIT\6\PROCESS.DWQ                                                                                                                                                                                                                                                                                                                                                                                                                                                                                                                                                                                                                                                                                                                                                                                                                                                                                                                                                                                                      

 Closing file: \S212003\WQ_OEF1.LIT\6\PROCESS.DWQ                                            

 Continuing on file: delwaq.inp                                                                    

 Including file: \S212003\WQ_OEF1.LIT\6\CONSTANT.DWQ                                                                                                                                                                                                                                                                                                                                                                                                                                                                                                                                                                                                                                                                                                                                                                                                                                                                                                                                                                                                     

 Closing file: \S212003\WQ_OEF1.LIT\6\CONSTANT.DWQ                                           

 Continuing on file: delwaq.inp                                                                    

 Including file: ..\work\param.dat                                                                                                                                                                                                                                                                                                                                                                                                                                                                                                                                                                                                                                                                                                                                                                                                                                                                                                                                                                                                                       
  
 Input parameter  nr:    1 is parameter  nr:    1 with ID  : Xseg                

 Input will be given for all         25 segments.

 parameter s ordered in groups of segments per parameter .
 constant values in this block.
 segments       1
 parameters   Xseg        
         1    9.7724E+02
         2    8.5000E+02
         3    7.6268E+02
         4    6.5000E+02
         5    5.7500E+02
         6    4.5000E+02
         7    3.7500E+02
         8    2.5000E+02
         9    1.7500E+02
        10    5.0000E+01
        11    1.9500E+03
        12    1.8750E+03
        13    1.7500E+03
        14    1.6500E+03
        15    1.5500E+03
        16    1.4500E+03
        17    1.3815E+03
        18    1.2500E+03
        19    1.1500E+03
        20    1.0761E+03
        21    1.0000E+03
        22    1.0000E+03
        23    1.0000E+03
        24    1.0000E+03
        25    1.0000E+03

 ====> input item completed <==== 


  
 Input parameter  nr:    1 is parameter  nr:    2 with ID  : Yseg                

 Input will be given for all         25 segments.

 parameter s ordered in groups of segments per parameter .
 constant values in this block.
 segments       2
 parameters   Yseg        
         1    0.0000E+00
         2    0.0000E+00
         3    0.0000E+00
         4    0.0000E+00
         5    0.0000E+00
         6    0.0000E+00
         7    0.0000E+00
         8    0.0000E+00
         9    0.0000E+00
        10    0.0000E+00
        11    0.0000E+00
        12    0.0000E+00
        13    0.0000E+00
        14    0.0000E+00
        15    0.0000E+00
        16    0.0000E+00
        17    0.0000E+00
        18    0.0000E+00
        19    0.0000E+00
        20    0.0000E+00
        21   -2.6082E+01
        22   -1.3158E+02
        23   -2.2500E+02
        24   -3.5000E+02
        25   -4.5000E+02

 ====> input item completed <==== 



 Closing file: ..\work\param.dat                                                             

 Continuing on file: delwaq.inp                                                                    

 Including file: \S212003\FIXED\DEFAULT.QWC                                                                                                                                                                                                                                                                                                                                                                                                                                                                                                                                                                                                                                                                                                                                                                                                                                                                                                                                                                                                              
 Input constant   nr:    1 is constant   nr:    3 with ID  : VWIND               
 Input constant   nr:    2 is constant   nr:    4 with ID  : WINDDIR             
 constant values in this block.
 values         3           4
 constants    VWIND       WINDDIR     
         1    1.0000E+01  6.0000E+01

 ====> input item completed <==== 



 Closing file: \S212003\FIXED\DEFAULT.QWC                                                    

 Continuing on file: delwaq.inp                                                                    

 Including file: \S212003\FIXED\DEFAULT.QSC                                                                                                                                                                                                                                                                                                                                                                                                                                                                                                                                                                                                                                                                                                                                                                                                                                                                                                                                                                                                              
 Input constant   nr:    1 is constant   nr:    5 with ID  : TEMP                
 Input constant   nr:    2 is constant   nr:    6 with ID  : RAD                 
 constant values in this block.
 values         5           6
 constants    TEMP        RAD         
         1    1.8200E+01  5.0000E+01

 ====> input item completed <==== 



 Closing file: \S212003\FIXED\DEFAULT.QSC                                                    

 Continuing on file: delwaq.inp                                                                    
  
 Input seg-funct. nr:    1 is seg-funct. nr:    1 with ID  : Chezy               
 Input seg-funct. nr:    2 is seg-funct. nr:    2 with ID  : Surf                
 Input seg-funct. nr:    3 is seg-funct. nr:    3 with ID  : Velocity            
 Input seg-funct. nr:    4 is seg-funct. nr:    4 with ID  : Width               

 Input will be given for all         25 segments.

 seg-funct.s ordered in groups of segments per seg-funct..
 Input comes from binary file: ..\work\segfun.dat                                                                                                                                                                                                                                              
 info comes at runtime from binary file: ..\work\segfun.dat

 ====> input item completed <==== 



 Total number of constants        :    6

 Total number of parameters       :    2

 Total number of functions        :    0

 Total number of segment functions:    4

 *********************************************************** B L O C K - 7 *****


 Including file: ..\work\wq2.dat                                                                                                                                                                                                                                                                                                                                                                                                                                                                                                                                                                                                                                                                                                                                                                                                                                                                                                                                                                                                                         

 Option selected for initials    :   0

 Information from unformatted intermediate file.
 Filename is: ..\work\wqres.res                                                                                                                                                                                                                                              
 WARNING file does not exist.
 Filename: ..\work\wqres.res                                                                                                                                                                                                                                              

 Closing file: ..\work\wq2.dat                                                               

 Continuing on file: delwaq.inp                                                                    

 *********************************************************** B L O C K - 8 *****



 Option selected for output specification :   1
 Information from the standard input file.

 Specification of monitor output

 Default output for this file

 Specification of grid dump output

 No output for this file

 Specification of history output

 Including file: hisvar.dat                                                                                                                                                                                                                                                                                                                                                                                                                                                                                                                                                                                                                                                                                                                                                                                                                                                                                                                                                                                                                              

 All substances plus extra output variables

 Including file: \S212003\WQ_OEF1.LIT\6\OUTPUT.DWQ                                                                                                                                                                                                                                                                                                                                                                                                                                                                                                                                                                                                                                                                                                                                                                                                                                                                                                                                                                                                       

 (      6) number of output variables specified

 Number           Identification        Weight variable
       1           Winddir               volume              
       2           Vwind                 volume              
       3           Temp                  volume              
       4           Rad                   volume              
       5           Volume                                    
       6           Surf                                      

 Specification of map output

 Closing file: \S212003\WQ_OEF1.LIT\6\OUTPUT.DWQ                                             

 Continuing on file: hisvar.dat                                                                    

 Closing file: hisvar.dat                                                                    

 Continuing on file: delwaq.inp                                                                    

 Including file: mapvar.dat                                                                                                                                                                                                                                                                                                                                                                                                                                                                                                                                                                                                                                                                                                                                                                                                                                                                                                                                                                                                                              

 Default output for this file

 Closing file: mapvar.dat                                                                    

 Continuing on file: delwaq.inp                                                                    

 Binary history file switched on

 Binary map file switched on

 NEFIS history file switched off

 NEFIS map file switched off
 
  Determining the place of the output variables
 
        Winddir             ; Using constant nr           4
        Vwind               ; Using constant nr           3
        Temp                ; Using constant nr           5
        Rad                 ; Using constant nr           6
        Volume              ; Using DELWAQ VOLUME
        Surf                ; Using segment function nr           2
        volume              ; Using DELWAQ VOLUME
        volume              ; Using DELWAQ VOLUME
        volume              ; Using DELWAQ VOLUME
        volume              ; Using DELWAQ VOLUME

 *********************************************************** B L O C K - 9 *****


 Output operations
Number of periods defined:     0
 

 *********************************************************** B L O C K -10 *****



 Messages presented in this .lst file:

 Number of WARNINGS            :  5
 Number of ERRORS during input :  0
 


 Messages presented including .lsp file:
 Number of WARNINGS            :     6

 Number of ERRORS during input :     0

 Parallel processing with   1 processor(s)

 total real      array space:       6151
 total integer   array space:       2677
 total character array space:        359
 grand total in 4-byte words:       9187 =   0-GB   0-MB  36-KB 748-Byte.
 Execution stop : 2012/01/18 15:15:58 
