  Using options from ini file : delwaq.ini
 Delft3D-WAQ version  4.5212 17-06-2011
 Only to be used by Buffel                                  
 (c) Deltares
 Execution start: 2012/04/13 10:39:11 

 Parallel processing with   1 processor(s)

 total real      array space:        284
 total integer   array space:       1978
 total character array space:        933
 grand total in 4-byte words:       3195 =   0-GB   0-MB  12-KB 780-Byte.
1                    Water quality calculation Sobek-WQ      
                                                             

                                                             
                     T0: 1996.01.01 00:00:00  (scu=       1s)

                     Initialisation from system file completed.
 partit: noseg,nolay=           8           1 , nseghr=           8
 partit: npart=  1, assigning all segments to part "npart", none to other parts
 
 CONSTANT ON UNIT:        22, READING: delwaq-dispersi.wrk                                                                                                                                                                                                                                            
 SIMULATION TIME :    0D  0H  0M  0S ! 
 TIME IN FILE    :    0D  0H  0M  0S ! 
 CONSTANT ON UNIT:        26, READING: ..\WORK\Length.dat                                                                                                                                                                                                                                             
 SIMULATION TIME :    0D  0H  0M  0S ! 
 TIME IN FILE    :    0D  0H  0M  0S ! 
  Closure error correction disabled
 
 Extra functionality DLWQTR
 End extra functionality DLWQTR
1
                                             Water quality calculation Sobek-WQ      
                                                                                     
                                                                                     
                                             T0: 1996.01.01 00:00:00  (scu=       1s)
   0.00% Completed


 DUMP OF INTERMEDIATE RESULTS IN SELECTED SEGMENTS
  TIME =   0D  0H  0M  0S .
 
 TOTAL MASS IN SYSTEM 0.0000E+00
 CHANGES BY PROCESSES 0.0000E+00
 CHANGES BY LOADS     0.0000E+00
 BOUNDARY INFLOWS     0.0000E+00
 BOUNDARY OUTFLOWS    0.0000E+00
                      Cl         
                                 
 CONCENTRATION                           
 Segment    1         0.0000E+00
 Segment    2         0.0000E+00
 Segment    3         0.0000E+00
 Segment    4         0.0000E+00
 Segment    5         0.0000E+00
 Segment    6         0.0000E+00
 Segment    7         0.0000E+00
 Segment    8         0.0000E+00
 
   0.30% Completed


 DUMP OF INTERMEDIATE RESULTS IN SELECTED SEGMENTS
  TIME =   0D  1H  0M  0S .
 
 TOTAL MASS IN SYSTEM 0.0000E+00
 CHANGES BY PROCESSES 0.0000E+00
 CHANGES BY LOADS     0.0000E+00
 BOUNDARY INFLOWS     0.0000E+00
 BOUNDARY OUTFLOWS    0.0000E+00
                      Cl         
                                 
 CONCENTRATION                           
 Segment    1         0.0000E+00
 Segment    2         0.0000E+00
 Segment    3         0.0000E+00
 Segment    4         0.0000E+00
 Segment    5         0.0000E+00
 Segment    6         0.0000E+00
 Segment    7         0.0000E+00
 Segment    8         0.0000E+00
 
1
                                             Water quality calculation Sobek-WQ      
                                                                                     
                                                                                     
                                             T0: 1996.01.01 00:00:00  (scu=       1s)
   0.60% Completed


 DUMP OF INTERMEDIATE RESULTS IN SELECTED SEGMENTS
  TIME =   0D  2H  0M  0S .
 
 TOTAL MASS IN SYSTEM 0.0000E+00
 CHANGES BY PROCESSES 0.0000E+00
 CHANGES BY LOADS     0.0000E+00
 BOUNDARY INFLOWS     0.0000E+00
 BOUNDARY OUTFLOWS    0.0000E+00
                      Cl         
                                 
 CONCENTRATION                           
 Segment    1         0.0000E+00
 Segment    2         0.0000E+00
 Segment    3         0.0000E+00
 Segment    4         0.0000E+00
 Segment    5         0.0000E+00
 Segment    6         0.0000E+00
 Segment    7         0.0000E+00
 Segment    8         0.0000E+00
 
   0.89% Completed


 DUMP OF INTERMEDIATE RESULTS IN SELECTED SEGMENTS
  TIME =   0D  3H  0M  0S .
 
 TOTAL MASS IN SYSTEM 0.0000E+00
 CHANGES BY PROCESSES 0.0000E+00
 CHANGES BY LOADS     0.0000E+00
 BOUNDARY INFLOWS     0.0000E+00
 BOUNDARY OUTFLOWS    0.0000E+00
                      Cl         
                                 
 CONCENTRATION                           
 Segment    1         0.0000E+00
 Segment    2         0.0000E+00
 Segment    3         0.0000E+00
 Segment    4         0.0000E+00
 Segment    5         0.0000E+00
 Segment    6         0.0000E+00
 Segment    7         0.0000E+00
 Segment    8         0.0000E+00
 
1
                                             Water quality calculation Sobek-WQ      
                                                                                     
                                                                                     
                                             T0: 1996.01.01 00:00:00  (scu=       1s)
   1.19% Completed


 DUMP OF INTERMEDIATE RESULTS IN SELECTED SEGMENTS
  TIME =   0D  4H  0M  0S .
 
 TOTAL MASS IN SYSTEM 0.0000E+00
 CHANGES BY PROCESSES 0.0000E+00
 CHANGES BY LOADS     0.0000E+00
 BOUNDARY INFLOWS     0.0000E+00
 BOUNDARY OUTFLOWS    0.0000E+00
                      Cl         
                                 
 CONCENTRATION                           
 Segment    1         0.0000E+00
 Segment    2         0.0000E+00
 Segment    3         0.0000E+00
 Segment    4         0.0000E+00
 Segment    5         0.0000E+00
 Segment    6         0.0000E+00
 Segment    7         0.0000E+00
 Segment    8         0.0000E+00
 
   1.49% Completed


 DUMP OF INTERMEDIATE RESULTS IN SELECTED SEGMENTS
  TIME =   0D  5H  0M  0S .
 
 TOTAL MASS IN SYSTEM 0.0000E+00
 CHANGES BY PROCESSES 0.0000E+00
 CHANGES BY LOADS     0.0000E+00
 BOUNDARY INFLOWS     0.0000E+00
 BOUNDARY OUTFLOWS    0.0000E+00
                      Cl         
                                 
 CONCENTRATION                           
 Segment    1         0.0000E+00
 Segment    2         0.0000E+00
 Segment    3         0.0000E+00
 Segment    4         0.0000E+00
 Segment    5         0.0000E+00
 Segment    6         0.0000E+00
 Segment    7         0.0000E+00
 Segment    8         0.0000E+00
 
1
                                             Water quality calculation Sobek-WQ      
                                                                                     
                                                                                     
                                             T0: 1996.01.01 00:00:00  (scu=       1s)
   1.79% Completed


 DUMP OF INTERMEDIATE RESULTS IN SELECTED SEGMENTS
  TIME =   0D  6H  0M  0S .
 
 TOTAL MASS IN SYSTEM 0.0000E+00
 CHANGES BY PROCESSES 0.0000E+00
 CHANGES BY LOADS     0.0000E+00
 BOUNDARY INFLOWS     0.0000E+00
 BOUNDARY OUTFLOWS    0.0000E+00
                      Cl         
                                 
 CONCENTRATION                           
 Segment    1         0.0000E+00
 Segment    2         0.0000E+00
 Segment    3         0.0000E+00
 Segment    4         0.0000E+00
 Segment    5         0.0000E+00
 Segment    6         0.0000E+00
 Segment    7         0.0000E+00
 Segment    8         0.0000E+00
 
   2.08% Completed


 DUMP OF INTERMEDIATE RESULTS IN SELECTED SEGMENTS
  TIME =   0D  7H  0M  0S .
 
 TOTAL MASS IN SYSTEM 0.0000E+00
 CHANGES BY PROCESSES 0.0000E+00
 CHANGES BY LOADS     0.0000E+00
 BOUNDARY INFLOWS     0.0000E+00
 BOUNDARY OUTFLOWS    0.0000E+00
                      Cl         
                                 
 CONCENTRATION                           
 Segment    1         0.0000E+00
 Segment    2         0.0000E+00
 Segment    3         0.0000E+00
 Segment    4         0.0000E+00
 Segment    5         0.0000E+00
 Segment    6         0.0000E+00
 Segment    7         0.0000E+00
 Segment    8         0.0000E+00
 
1
                                             Water quality calculation Sobek-WQ      
                                                                                     
                                                                                     
                                             T0: 1996.01.01 00:00:00  (scu=       1s)
   2.38% Completed


 DUMP OF INTERMEDIATE RESULTS IN SELECTED SEGMENTS
  TIME =   0D  8H  0M  0S .
 
 TOTAL MASS IN SYSTEM 0.0000E+00
 CHANGES BY PROCESSES 0.0000E+00
 CHANGES BY LOADS     0.0000E+00
 BOUNDARY INFLOWS     0.0000E+00
 BOUNDARY OUTFLOWS    0.0000E+00
                      Cl         
                                 
 CONCENTRATION                           
 Segment    1         0.0000E+00
 Segment    2         0.0000E+00
 Segment    3         0.0000E+00
 Segment    4         0.0000E+00
 Segment    5         0.0000E+00
 Segment    6         0.0000E+00
 Segment    7         0.0000E+00
 Segment    8         0.0000E+00
 
   2.68% Completed


 DUMP OF INTERMEDIATE RESULTS IN SELECTED SEGMENTS
  TIME =   0D  9H  0M  0S .
 
 TOTAL MASS IN SYSTEM 0.0000E+00
 CHANGES BY PROCESSES 0.0000E+00
 CHANGES BY LOADS     0.0000E+00
 BOUNDARY INFLOWS     0.0000E+00
 BOUNDARY OUTFLOWS    0.0000E+00
                      Cl         
                                 
 CONCENTRATION                           
 Segment    1         0.0000E+00
 Segment    2         0.0000E+00
 Segment    3         0.0000E+00
 Segment    4         0.0000E+00
 Segment    5         0.0000E+00
 Segment    6         0.0000E+00
 Segment    7         0.0000E+00
 Segment    8         0.0000E+00
 
1
                                             Water quality calculation Sobek-WQ      
                                                                                     
                                                                                     
                                             T0: 1996.01.01 00:00:00  (scu=       1s)
   2.98% Completed


 DUMP OF INTERMEDIATE RESULTS IN SELECTED SEGMENTS
  TIME =   0D 10H  0M  0S .
 
 TOTAL MASS IN SYSTEM 0.0000E+00
 CHANGES BY PROCESSES 0.0000E+00
 CHANGES BY LOADS     0.0000E+00
 BOUNDARY INFLOWS     0.0000E+00
 BOUNDARY OUTFLOWS    0.0000E+00
                      Cl         
                                 
 CONCENTRATION                           
 Segment    1         0.0000E+00
 Segment    2         0.0000E+00
 Segment    3         0.0000E+00
 Segment    4         0.0000E+00
 Segment    5         0.0000E+00
 Segment    6         0.0000E+00
 Segment    7         0.0000E+00
 Segment    8         0.0000E+00
 
   3.27% Completed


 DUMP OF INTERMEDIATE RESULTS IN SELECTED SEGMENTS
  TIME =   0D 11H  0M  0S .
 
 TOTAL MASS IN SYSTEM 0.0000E+00
 CHANGES BY PROCESSES 0.0000E+00
 CHANGES BY LOADS     0.0000E+00
 BOUNDARY INFLOWS     0.0000E+00
 BOUNDARY OUTFLOWS    0.0000E+00
                      Cl         
                                 
 CONCENTRATION                           
 Segment    1         0.0000E+00
 Segment    2         0.0000E+00
 Segment    3         0.0000E+00
 Segment    4         0.0000E+00
 Segment    5         0.0000E+00
 Segment    6         0.0000E+00
 Segment    7         0.0000E+00
 Segment    8         0.0000E+00
 
1
                                             Water quality calculation Sobek-WQ      
                                                                                     
                                                                                     
                                             T0: 1996.01.01 00:00:00  (scu=       1s)
   3.57% Completed


 DUMP OF INTERMEDIATE RESULTS IN SELECTED SEGMENTS
  TIME =   0D 12H  0M  0S .
 
 TOTAL MASS IN SYSTEM 0.0000E+00
 CHANGES BY PROCESSES 0.0000E+00
 CHANGES BY LOADS     0.0000E+00
 BOUNDARY INFLOWS     0.0000E+00
 BOUNDARY OUTFLOWS    0.0000E+00
                      Cl         
                                 
 CONCENTRATION                           
 Segment    1         0.0000E+00
 Segment    2         0.0000E+00
 Segment    3         0.0000E+00
 Segment    4         0.0000E+00
 Segment    5         0.0000E+00
 Segment    6         0.0000E+00
 Segment    7         0.0000E+00
 Segment    8         0.0000E+00
 
   3.87% Completed


 DUMP OF INTERMEDIATE RESULTS IN SELECTED SEGMENTS
  TIME =   0D 13H  0M  0S .
 
 TOTAL MASS IN SYSTEM 0.0000E+00
 CHANGES BY PROCESSES 0.0000E+00
 CHANGES BY LOADS     0.0000E+00
 BOUNDARY INFLOWS     0.0000E+00
 BOUNDARY OUTFLOWS    0.0000E+00
                      Cl         
                                 
 CONCENTRATION                           
 Segment    1         0.0000E+00
 Segment    2         0.0000E+00
 Segment    3         0.0000E+00
 Segment    4         0.0000E+00
 Segment    5         0.0000E+00
 Segment    6         0.0000E+00
 Segment    7         0.0000E+00
 Segment    8         0.0000E+00
 
1
                                             Water quality calculation Sobek-WQ      
                                                                                     
                                                                                     
                                             T0: 1996.01.01 00:00:00  (scu=       1s)
   4.17% Completed


 DUMP OF INTERMEDIATE RESULTS IN SELECTED SEGMENTS
  TIME =   0D 14H  0M  0S .
 
 TOTAL MASS IN SYSTEM 0.0000E+00
 CHANGES BY PROCESSES 0.0000E+00
 CHANGES BY LOADS     0.0000E+00
 BOUNDARY INFLOWS     0.0000E+00
 BOUNDARY OUTFLOWS    0.0000E+00
                      Cl         
                                 
 CONCENTRATION                           
 Segment    1         0.0000E+00
 Segment    2         0.0000E+00
 Segment    3         0.0000E+00
 Segment    4         0.0000E+00
 Segment    5         0.0000E+00
 Segment    6         0.0000E+00
 Segment    7         0.0000E+00
 Segment    8         0.0000E+00
 
   4.46% Completed


 DUMP OF INTERMEDIATE RESULTS IN SELECTED SEGMENTS
  TIME =   0D 15H  0M  0S .
 
 TOTAL MASS IN SYSTEM 0.0000E+00
 CHANGES BY PROCESSES 0.0000E+00
 CHANGES BY LOADS     0.0000E+00
 BOUNDARY INFLOWS     0.0000E+00
 BOUNDARY OUTFLOWS    0.0000E+00
                      Cl         
                                 
 CONCENTRATION                           
 Segment    1         0.0000E+00
 Segment    2         0.0000E+00
 Segment    3         0.0000E+00
 Segment    4         0.0000E+00
 Segment    5         0.0000E+00
 Segment    6         0.0000E+00
 Segment    7         0.0000E+00
 Segment    8         0.0000E+00
 
1
                                             Water quality calculation Sobek-WQ      
                                                                                     
                                                                                     
                                             T0: 1996.01.01 00:00:00  (scu=       1s)
   4.76% Completed


 DUMP OF INTERMEDIATE RESULTS IN SELECTED SEGMENTS
  TIME =   0D 16H  0M  0S .
 
 TOTAL MASS IN SYSTEM 0.0000E+00
 CHANGES BY PROCESSES 0.0000E+00
 CHANGES BY LOADS     0.0000E+00
 BOUNDARY INFLOWS     0.0000E+00
 BOUNDARY OUTFLOWS    0.0000E+00
                      Cl         
                                 
 CONCENTRATION                           
 Segment    1         0.0000E+00
 Segment    2         0.0000E+00
 Segment    3         0.0000E+00
 Segment    4         0.0000E+00
 Segment    5         0.0000E+00
 Segment    6         0.0000E+00
 Segment    7         0.0000E+00
 Segment    8         0.0000E+00
 
   5.06% Completed


 DUMP OF INTERMEDIATE RESULTS IN SELECTED SEGMENTS
  TIME =   0D 17H  0M  0S .
 
 TOTAL MASS IN SYSTEM 0.0000E+00
 CHANGES BY PROCESSES 0.0000E+00
 CHANGES BY LOADS     0.0000E+00
 BOUNDARY INFLOWS     0.0000E+00
 BOUNDARY OUTFLOWS    0.0000E+00
                      Cl         
                                 
 CONCENTRATION                           
 Segment    1         0.0000E+00
 Segment    2         0.0000E+00
 Segment    3         0.0000E+00
 Segment    4         0.0000E+00
 Segment    5         0.0000E+00
 Segment    6         0.0000E+00
 Segment    7         0.0000E+00
 Segment    8         0.0000E+00
 
1
                                             Water quality calculation Sobek-WQ      
                                                                                     
                                                                                     
                                             T0: 1996.01.01 00:00:00  (scu=       1s)
   5.36% Completed


 DUMP OF INTERMEDIATE RESULTS IN SELECTED SEGMENTS
  TIME =   0D 18H  0M  0S .
 
 TOTAL MASS IN SYSTEM 0.0000E+00
 CHANGES BY PROCESSES 0.0000E+00
 CHANGES BY LOADS     0.0000E+00
 BOUNDARY INFLOWS     0.0000E+00
 BOUNDARY OUTFLOWS    0.0000E+00
                      Cl         
                                 
 CONCENTRATION                           
 Segment    1         0.0000E+00
 Segment    2         0.0000E+00
 Segment    3         0.0000E+00
 Segment    4         0.0000E+00
 Segment    5         0.0000E+00
 Segment    6         0.0000E+00
 Segment    7         0.0000E+00
 Segment    8         0.0000E+00
 
   5.65% Completed


 DUMP OF INTERMEDIATE RESULTS IN SELECTED SEGMENTS
  TIME =   0D 19H  0M  0S .
 
 TOTAL MASS IN SYSTEM 0.0000E+00
 CHANGES BY PROCESSES 0.0000E+00
 CHANGES BY LOADS     0.0000E+00
 BOUNDARY INFLOWS     0.0000E+00
 BOUNDARY OUTFLOWS    0.0000E+00
                      Cl         
                                 
 CONCENTRATION                           
 Segment    1         0.0000E+00
 Segment    2         0.0000E+00
 Segment    3         0.0000E+00
 Segment    4         0.0000E+00
 Segment    5         0.0000E+00
 Segment    6         0.0000E+00
 Segment    7         0.0000E+00
 Segment    8         0.0000E+00
 
1
                                             Water quality calculation Sobek-WQ      
                                                                                     
                                                                                     
                                             T0: 1996.01.01 00:00:00  (scu=       1s)
   5.95% Completed


 DUMP OF INTERMEDIATE RESULTS IN SELECTED SEGMENTS
  TIME =   0D 20H  0M  0S .
 
 TOTAL MASS IN SYSTEM 0.0000E+00
 CHANGES BY PROCESSES 0.0000E+00
 CHANGES BY LOADS     0.0000E+00
 BOUNDARY INFLOWS     0.0000E+00
 BOUNDARY OUTFLOWS    0.0000E+00
                      Cl         
                                 
 CONCENTRATION                           
 Segment    1         0.0000E+00
 Segment    2         0.0000E+00
 Segment    3         0.0000E+00
 Segment    4         0.0000E+00
 Segment    5         0.0000E+00
 Segment    6         0.0000E+00
 Segment    7         0.0000E+00
 Segment    8         0.0000E+00
 
   6.25% Completed


 DUMP OF INTERMEDIATE RESULTS IN SELECTED SEGMENTS
  TIME =   0D 21H  0M  0S .
 
 TOTAL MASS IN SYSTEM 0.0000E+00
 CHANGES BY PROCESSES 0.0000E+00
 CHANGES BY LOADS     0.0000E+00
 BOUNDARY INFLOWS     0.0000E+00
 BOUNDARY OUTFLOWS    0.0000E+00
                      Cl         
                                 
 CONCENTRATION                           
 Segment    1         0.0000E+00
 Segment    2         0.0000E+00
 Segment    3         0.0000E+00
 Segment    4         0.0000E+00
 Segment    5         0.0000E+00
 Segment    6         0.0000E+00
 Segment    7         0.0000E+00
 Segment    8         0.0000E+00
 
1
                                             Water quality calculation Sobek-WQ      
                                                                                     
                                                                                     
                                             T0: 1996.01.01 00:00:00  (scu=       1s)
   6.55% Completed


 DUMP OF INTERMEDIATE RESULTS IN SELECTED SEGMENTS
  TIME =   0D 22H  0M  0S .
 
 TOTAL MASS IN SYSTEM 0.0000E+00
 CHANGES BY PROCESSES 0.0000E+00
 CHANGES BY LOADS     0.0000E+00
 BOUNDARY INFLOWS     0.0000E+00
 BOUNDARY OUTFLOWS    0.0000E+00
                      Cl         
                                 
 CONCENTRATION                           
 Segment    1         0.0000E+00
 Segment    2         0.0000E+00
 Segment    3         0.0000E+00
 Segment    4         0.0000E+00
 Segment    5         0.0000E+00
 Segment    6         0.0000E+00
 Segment    7         0.0000E+00
 Segment    8         0.0000E+00
 
   6.85% Completed


 DUMP OF INTERMEDIATE RESULTS IN SELECTED SEGMENTS
  TIME =   0D 23H  0M  0S .
 
 TOTAL MASS IN SYSTEM 0.0000E+00
 CHANGES BY PROCESSES 0.0000E+00
 CHANGES BY LOADS     0.0000E+00
 BOUNDARY INFLOWS     0.0000E+00
 BOUNDARY OUTFLOWS    0.0000E+00
                      Cl         
                                 
 CONCENTRATION                           
 Segment    1         0.0000E+00
 Segment    2         0.0000E+00
 Segment    3         0.0000E+00
 Segment    4         0.0000E+00
 Segment    5         0.0000E+00
 Segment    6         0.0000E+00
 Segment    7         0.0000E+00
 Segment    8         0.0000E+00
 
1
                                             Water quality calculation Sobek-WQ      
                                                                                     
                                                                                     
                                             T0: 1996.01.01 00:00:00  (scu=       1s)
   7.14% Completed


 DUMP OF INTERMEDIATE RESULTS IN SELECTED SEGMENTS
  TIME =   1D  0H  0M  0S .
 
 TOTAL MASS IN SYSTEM 0.0000E+00
 CHANGES BY PROCESSES 0.0000E+00
 CHANGES BY LOADS     0.0000E+00
 BOUNDARY INFLOWS     0.0000E+00
 BOUNDARY OUTFLOWS    0.0000E+00
                      Cl         
                                 
 CONCENTRATION                           
 Segment    1         0.0000E+00
 Segment    2         0.0000E+00
 Segment    3         0.0000E+00
 Segment    4         0.0000E+00
 Segment    5         0.0000E+00
 Segment    6         0.0000E+00
 Segment    7         0.0000E+00
 Segment    8         0.0000E+00
 
   7.44% Completed


 DUMP OF INTERMEDIATE RESULTS IN SELECTED SEGMENTS
  TIME =   1D  1H  0M  0S .
 
 TOTAL MASS IN SYSTEM 0.0000E+00
 CHANGES BY PROCESSES 0.0000E+00
 CHANGES BY LOADS     0.0000E+00
 BOUNDARY INFLOWS     0.0000E+00
 BOUNDARY OUTFLOWS    0.0000E+00
                      Cl         
                                 
 CONCENTRATION                           
 Segment    1         0.0000E+00
 Segment    2         0.0000E+00
 Segment    3         0.0000E+00
 Segment    4         0.0000E+00
 Segment    5         0.0000E+00
 Segment    6         0.0000E+00
 Segment    7         0.0000E+00
 Segment    8         0.0000E+00
 
1
                                             Water quality calculation Sobek-WQ      
                                                                                     
                                                                                     
                                             T0: 1996.01.01 00:00:00  (scu=       1s)
   7.74% Completed


 DUMP OF INTERMEDIATE RESULTS IN SELECTED SEGMENTS
  TIME =   1D  2H  0M  0S .
 
 TOTAL MASS IN SYSTEM 0.0000E+00
 CHANGES BY PROCESSES 0.0000E+00
 CHANGES BY LOADS     0.0000E+00
 BOUNDARY INFLOWS     0.0000E+00
 BOUNDARY OUTFLOWS    0.0000E+00
                      Cl         
                                 
 CONCENTRATION                           
 Segment    1         0.0000E+00
 Segment    2         0.0000E+00
 Segment    3         0.0000E+00
 Segment    4         0.0000E+00
 Segment    5         0.0000E+00
 Segment    6         0.0000E+00
 Segment    7         0.0000E+00
 Segment    8         0.0000E+00
 
   8.04% Completed


 DUMP OF INTERMEDIATE RESULTS IN SELECTED SEGMENTS
  TIME =   1D  3H  0M  0S .
 
 TOTAL MASS IN SYSTEM 0.0000E+00
 CHANGES BY PROCESSES 0.0000E+00
 CHANGES BY LOADS     0.0000E+00
 BOUNDARY INFLOWS     0.0000E+00
 BOUNDARY OUTFLOWS    0.0000E+00
                      Cl         
                                 
 CONCENTRATION                           
 Segment    1         0.0000E+00
 Segment    2         0.0000E+00
 Segment    3         0.0000E+00
 Segment    4         0.0000E+00
 Segment    5         0.0000E+00
 Segment    6         0.0000E+00
 Segment    7         0.0000E+00
 Segment    8         0.0000E+00
 
1
                                             Water quality calculation Sobek-WQ      
                                                                                     
                                                                                     
                                             T0: 1996.01.01 00:00:00  (scu=       1s)
   8.33% Completed


 DUMP OF INTERMEDIATE RESULTS IN SELECTED SEGMENTS
  TIME =   1D  4H  0M  0S .
 
 TOTAL MASS IN SYSTEM 0.0000E+00
 CHANGES BY PROCESSES 0.0000E+00
 CHANGES BY LOADS     0.0000E+00
 BOUNDARY INFLOWS     0.0000E+00
 BOUNDARY OUTFLOWS    0.0000E+00
                      Cl         
                                 
 CONCENTRATION                           
 Segment    1         0.0000E+00
 Segment    2         0.0000E+00
 Segment    3         0.0000E+00
 Segment    4         0.0000E+00
 Segment    5         0.0000E+00
 Segment    6         0.0000E+00
 Segment    7         0.0000E+00
 Segment    8         0.0000E+00
 
   8.63% Completed


 DUMP OF INTERMEDIATE RESULTS IN SELECTED SEGMENTS
  TIME =   1D  5H  0M  0S .
 
 TOTAL MASS IN SYSTEM 0.0000E+00
 CHANGES BY PROCESSES 0.0000E+00
 CHANGES BY LOADS     0.0000E+00
 BOUNDARY INFLOWS     0.0000E+00
 BOUNDARY OUTFLOWS    0.0000E+00
                      Cl         
                                 
 CONCENTRATION                           
 Segment    1         0.0000E+00
 Segment    2         0.0000E+00
 Segment    3         0.0000E+00
 Segment    4         0.0000E+00
 Segment    5         0.0000E+00
 Segment    6         0.0000E+00
 Segment    7         0.0000E+00
 Segment    8         0.0000E+00
 
1
                                             Water quality calculation Sobek-WQ      
                                                                                     
                                                                                     
                                             T0: 1996.01.01 00:00:00  (scu=       1s)
   8.93% Completed


 DUMP OF INTERMEDIATE RESULTS IN SELECTED SEGMENTS
  TIME =   1D  6H  0M  0S .
 
 TOTAL MASS IN SYSTEM 0.0000E+00
 CHANGES BY PROCESSES 0.0000E+00
 CHANGES BY LOADS     0.0000E+00
 BOUNDARY INFLOWS     0.0000E+00
 BOUNDARY OUTFLOWS    0.0000E+00
                      Cl         
                                 
 CONCENTRATION                           
 Segment    1         0.0000E+00
 Segment    2         0.0000E+00
 Segment    3         0.0000E+00
 Segment    4         0.0000E+00
 Segment    5         0.0000E+00
 Segment    6         0.0000E+00
 Segment    7         0.0000E+00
 Segment    8         0.0000E+00
 
   9.23% Completed


 DUMP OF INTERMEDIATE RESULTS IN SELECTED SEGMENTS
  TIME =   1D  7H  0M  0S .
 
 TOTAL MASS IN SYSTEM 0.0000E+00
 CHANGES BY PROCESSES 0.0000E+00
 CHANGES BY LOADS     0.0000E+00
 BOUNDARY INFLOWS     0.0000E+00
 BOUNDARY OUTFLOWS    0.0000E+00
                      Cl         
                                 
 CONCENTRATION                           
 Segment    1         0.0000E+00
 Segment    2         0.0000E+00
 Segment    3         0.0000E+00
 Segment    4         0.0000E+00
 Segment    5         0.0000E+00
 Segment    6         0.0000E+00
 Segment    7         0.0000E+00
 Segment    8         0.0000E+00
 
1
                                             Water quality calculation Sobek-WQ      
                                                                                     
                                                                                     
                                             T0: 1996.01.01 00:00:00  (scu=       1s)
   9.52% Completed


 DUMP OF INTERMEDIATE RESULTS IN SELECTED SEGMENTS
  TIME =   1D  8H  0M  0S .
 
 TOTAL MASS IN SYSTEM 0.0000E+00
 CHANGES BY PROCESSES 0.0000E+00
 CHANGES BY LOADS     0.0000E+00
 BOUNDARY INFLOWS     0.0000E+00
 BOUNDARY OUTFLOWS    0.0000E+00
                      Cl         
                                 
 CONCENTRATION                           
 Segment    1         0.0000E+00
 Segment    2         0.0000E+00
 Segment    3         0.0000E+00
 Segment    4         0.0000E+00
 Segment    5         0.0000E+00
 Segment    6         0.0000E+00
 Segment    7         0.0000E+00
 Segment    8         0.0000E+00
 
   9.82% Completed


 DUMP OF INTERMEDIATE RESULTS IN SELECTED SEGMENTS
  TIME =   1D  9H  0M  0S .
 
 TOTAL MASS IN SYSTEM 0.0000E+00
 CHANGES BY PROCESSES 0.0000E+00
 CHANGES BY LOADS     0.0000E+00
 BOUNDARY INFLOWS     0.0000E+00
 BOUNDARY OUTFLOWS    0.0000E+00
                      Cl         
                                 
 CONCENTRATION                           
 Segment    1         0.0000E+00
 Segment    2         0.0000E+00
 Segment    3         0.0000E+00
 Segment    4         0.0000E+00
 Segment    5         0.0000E+00
 Segment    6         0.0000E+00
 Segment    7         0.0000E+00
 Segment    8         0.0000E+00
 
1
                                             Water quality calculation Sobek-WQ      
                                                                                     
                                                                                     
                                             T0: 1996.01.01 00:00:00  (scu=       1s)
  10.12% Completed


 DUMP OF INTERMEDIATE RESULTS IN SELECTED SEGMENTS
  TIME =   1D 10H  0M  0S .
 
 TOTAL MASS IN SYSTEM 0.0000E+00
 CHANGES BY PROCESSES 0.0000E+00
 CHANGES BY LOADS     0.0000E+00
 BOUNDARY INFLOWS     0.0000E+00
 BOUNDARY OUTFLOWS    0.0000E+00
                      Cl         
                                 
 CONCENTRATION                           
 Segment    1         0.0000E+00
 Segment    2         0.0000E+00
 Segment    3         0.0000E+00
 Segment    4         0.0000E+00
 Segment    5         0.0000E+00
 Segment    6         0.0000E+00
 Segment    7         0.0000E+00
 Segment    8         0.0000E+00
 
  10.42% Completed


 DUMP OF INTERMEDIATE RESULTS IN SELECTED SEGMENTS
  TIME =   1D 11H  0M  0S .
 
 TOTAL MASS IN SYSTEM 0.0000E+00
 CHANGES BY PROCESSES 0.0000E+00
 CHANGES BY LOADS     0.0000E+00
 BOUNDARY INFLOWS     0.0000E+00
 BOUNDARY OUTFLOWS    0.0000E+00
                      Cl         
                                 
 CONCENTRATION                           
 Segment    1         0.0000E+00
 Segment    2         0.0000E+00
 Segment    3         0.0000E+00
 Segment    4         0.0000E+00
 Segment    5         0.0000E+00
 Segment    6         0.0000E+00
 Segment    7         0.0000E+00
 Segment    8         0.0000E+00
 
1
                                             Water quality calculation Sobek-WQ      
                                                                                     
                                                                                     
                                             T0: 1996.01.01 00:00:00  (scu=       1s)
  10.71% Completed


 DUMP OF INTERMEDIATE RESULTS IN SELECTED SEGMENTS
  TIME =   1D 12H  0M  0S .
 
 TOTAL MASS IN SYSTEM 0.0000E+00
 CHANGES BY PROCESSES 0.0000E+00
 CHANGES BY LOADS     0.0000E+00
 BOUNDARY INFLOWS     0.0000E+00
 BOUNDARY OUTFLOWS    0.0000E+00
                      Cl         
                                 
 CONCENTRATION                           
 Segment    1         0.0000E+00
 Segment    2         0.0000E+00
 Segment    3         0.0000E+00
 Segment    4         0.0000E+00
 Segment    5         0.0000E+00
 Segment    6         0.0000E+00
 Segment    7         0.0000E+00
 Segment    8         0.0000E+00
 
  11.01% Completed


 DUMP OF INTERMEDIATE RESULTS IN SELECTED SEGMENTS
  TIME =   1D 13H  0M  0S .
 
 TOTAL MASS IN SYSTEM 0.0000E+00
 CHANGES BY PROCESSES 0.0000E+00
 CHANGES BY LOADS     0.0000E+00
 BOUNDARY INFLOWS     0.0000E+00
 BOUNDARY OUTFLOWS    0.0000E+00
                      Cl         
                                 
 CONCENTRATION                           
 Segment    1         0.0000E+00
 Segment    2         0.0000E+00
 Segment    3         0.0000E+00
 Segment    4         0.0000E+00
 Segment    5         0.0000E+00
 Segment    6         0.0000E+00
 Segment    7         0.0000E+00
 Segment    8         0.0000E+00
 
1
                                             Water quality calculation Sobek-WQ      
                                                                                     
                                                                                     
                                             T0: 1996.01.01 00:00:00  (scu=       1s)
  11.31% Completed


 DUMP OF INTERMEDIATE RESULTS IN SELECTED SEGMENTS
  TIME =   1D 14H  0M  0S .
 
 TOTAL MASS IN SYSTEM 0.0000E+00
 CHANGES BY PROCESSES 0.0000E+00
 CHANGES BY LOADS     0.0000E+00
 BOUNDARY INFLOWS     0.0000E+00
 BOUNDARY OUTFLOWS    0.0000E+00
                      Cl         
                                 
 CONCENTRATION                           
 Segment    1         0.0000E+00
 Segment    2         0.0000E+00
 Segment    3         0.0000E+00
 Segment    4         0.0000E+00
 Segment    5         0.0000E+00
 Segment    6         0.0000E+00
 Segment    7         0.0000E+00
 Segment    8         0.0000E+00
 
  11.61% Completed


 DUMP OF INTERMEDIATE RESULTS IN SELECTED SEGMENTS
  TIME =   1D 15H  0M  0S .
 
 TOTAL MASS IN SYSTEM 0.0000E+00
 CHANGES BY PROCESSES 0.0000E+00
 CHANGES BY LOADS     0.0000E+00
 BOUNDARY INFLOWS     0.0000E+00
 BOUNDARY OUTFLOWS    0.0000E+00
                      Cl         
                                 
 CONCENTRATION                           
 Segment    1         0.0000E+00
 Segment    2         0.0000E+00
 Segment    3         0.0000E+00
 Segment    4         0.0000E+00
 Segment    5         0.0000E+00
 Segment    6         0.0000E+00
 Segment    7         0.0000E+00
 Segment    8         0.0000E+00
 
1
                                             Water quality calculation Sobek-WQ      
                                                                                     
                                                                                     
                                             T0: 1996.01.01 00:00:00  (scu=       1s)
  11.90% Completed


 DUMP OF INTERMEDIATE RESULTS IN SELECTED SEGMENTS
  TIME =   1D 16H  0M  0S .
 
 TOTAL MASS IN SYSTEM 0.0000E+00
 CHANGES BY PROCESSES 0.0000E+00
 CHANGES BY LOADS     0.0000E+00
 BOUNDARY INFLOWS     0.0000E+00
 BOUNDARY OUTFLOWS    0.0000E+00
                      Cl         
                                 
 CONCENTRATION                           
 Segment    1         0.0000E+00
 Segment    2         0.0000E+00
 Segment    3         0.0000E+00
 Segment    4         0.0000E+00
 Segment    5         0.0000E+00
 Segment    6         0.0000E+00
 Segment    7         0.0000E+00
 Segment    8         0.0000E+00
 
  12.20% Completed


 DUMP OF INTERMEDIATE RESULTS IN SELECTED SEGMENTS
  TIME =   1D 17H  0M  0S .
 
 TOTAL MASS IN SYSTEM 0.0000E+00
 CHANGES BY PROCESSES 0.0000E+00
 CHANGES BY LOADS     0.0000E+00
 BOUNDARY INFLOWS     0.0000E+00
 BOUNDARY OUTFLOWS    0.0000E+00
                      Cl         
                                 
 CONCENTRATION                           
 Segment    1         0.0000E+00
 Segment    2         0.0000E+00
 Segment    3         0.0000E+00
 Segment    4         0.0000E+00
 Segment    5         0.0000E+00
 Segment    6         0.0000E+00
 Segment    7         0.0000E+00
 Segment    8         0.0000E+00
 
1
                                             Water quality calculation Sobek-WQ      
                                                                                     
                                                                                     
                                             T0: 1996.01.01 00:00:00  (scu=       1s)
  12.50% Completed


 DUMP OF INTERMEDIATE RESULTS IN SELECTED SEGMENTS
  TIME =   1D 18H  0M  0S .
 
 TOTAL MASS IN SYSTEM 0.0000E+00
 CHANGES BY PROCESSES 0.0000E+00
 CHANGES BY LOADS     0.0000E+00
 BOUNDARY INFLOWS     0.0000E+00
 BOUNDARY OUTFLOWS    0.0000E+00
                      Cl         
                                 
 CONCENTRATION                           
 Segment    1         0.0000E+00
 Segment    2         0.0000E+00
 Segment    3         0.0000E+00
 Segment    4         0.0000E+00
 Segment    5         0.0000E+00
 Segment    6         0.0000E+00
 Segment    7         0.0000E+00
 Segment    8         0.0000E+00
 
  12.80% Completed


 DUMP OF INTERMEDIATE RESULTS IN SELECTED SEGMENTS
  TIME =   1D 19H  0M  0S .
 
 TOTAL MASS IN SYSTEM 0.0000E+00
 CHANGES BY PROCESSES 0.0000E+00
 CHANGES BY LOADS     0.0000E+00
 BOUNDARY INFLOWS     0.0000E+00
 BOUNDARY OUTFLOWS    0.0000E+00
                      Cl         
                                 
 CONCENTRATION                           
 Segment    1         0.0000E+00
 Segment    2         0.0000E+00
 Segment    3         0.0000E+00
 Segment    4         0.0000E+00
 Segment    5         0.0000E+00
 Segment    6         0.0000E+00
 Segment    7         0.0000E+00
 Segment    8         0.0000E+00
 
1
                                             Water quality calculation Sobek-WQ      
                                                                                     
                                                                                     
                                             T0: 1996.01.01 00:00:00  (scu=       1s)
  13.10% Completed


 DUMP OF INTERMEDIATE RESULTS IN SELECTED SEGMENTS
  TIME =   1D 20H  0M  0S .
 
 TOTAL MASS IN SYSTEM 0.0000E+00
 CHANGES BY PROCESSES 0.0000E+00
 CHANGES BY LOADS     0.0000E+00
 BOUNDARY INFLOWS     0.0000E+00
 BOUNDARY OUTFLOWS    0.0000E+00
                      Cl         
                                 
 CONCENTRATION                           
 Segment    1         0.0000E+00
 Segment    2         0.0000E+00
 Segment    3         0.0000E+00
 Segment    4         0.0000E+00
 Segment    5         0.0000E+00
 Segment    6         0.0000E+00
 Segment    7         0.0000E+00
 Segment    8         0.0000E+00
 
  13.39% Completed


 DUMP OF INTERMEDIATE RESULTS IN SELECTED SEGMENTS
  TIME =   1D 21H  0M  0S .
 
 TOTAL MASS IN SYSTEM 0.0000E+00
 CHANGES BY PROCESSES 0.0000E+00
 CHANGES BY LOADS     0.0000E+00
 BOUNDARY INFLOWS     0.0000E+00
 BOUNDARY OUTFLOWS    0.0000E+00
                      Cl         
                                 
 CONCENTRATION                           
 Segment    1         0.0000E+00
 Segment    2         0.0000E+00
 Segment    3         0.0000E+00
 Segment    4         0.0000E+00
 Segment    5         0.0000E+00
 Segment    6         0.0000E+00
 Segment    7         0.0000E+00
 Segment    8         0.0000E+00
 
1
                                             Water quality calculation Sobek-WQ      
                                                                                     
                                                                                     
                                             T0: 1996.01.01 00:00:00  (scu=       1s)
  13.69% Completed


 DUMP OF INTERMEDIATE RESULTS IN SELECTED SEGMENTS
  TIME =   1D 22H  0M  0S .
 
 TOTAL MASS IN SYSTEM 0.0000E+00
 CHANGES BY PROCESSES 0.0000E+00
 CHANGES BY LOADS     0.0000E+00
 BOUNDARY INFLOWS     0.0000E+00
 BOUNDARY OUTFLOWS    0.0000E+00
                      Cl         
                                 
 CONCENTRATION                           
 Segment    1         0.0000E+00
 Segment    2         0.0000E+00
 Segment    3         0.0000E+00
 Segment    4         0.0000E+00
 Segment    5         0.0000E+00
 Segment    6         0.0000E+00
 Segment    7         0.0000E+00
 Segment    8         0.0000E+00
 
  13.99% Completed


 DUMP OF INTERMEDIATE RESULTS IN SELECTED SEGMENTS
  TIME =   1D 23H  0M  0S .
 
 TOTAL MASS IN SYSTEM 0.0000E+00
 CHANGES BY PROCESSES 0.0000E+00
 CHANGES BY LOADS     0.0000E+00
 BOUNDARY INFLOWS     0.0000E+00
 BOUNDARY OUTFLOWS    0.0000E+00
                      Cl         
                                 
 CONCENTRATION                           
 Segment    1         0.0000E+00
 Segment    2         0.0000E+00
 Segment    3         0.0000E+00
 Segment    4         0.0000E+00
 Segment    5         0.0000E+00
 Segment    6         0.0000E+00
 Segment    7         0.0000E+00
 Segment    8         0.0000E+00
 
1
                                             Water quality calculation Sobek-WQ      
                                                                                     
                                                                                     
                                             T0: 1996.01.01 00:00:00  (scu=       1s)
  14.29% Completed


 DUMP OF INTERMEDIATE RESULTS IN SELECTED SEGMENTS
  TIME =   2D  0H  0M  0S .
 
 TOTAL MASS IN SYSTEM 0.0000E+00
 CHANGES BY PROCESSES 0.0000E+00
 CHANGES BY LOADS     0.0000E+00
 BOUNDARY INFLOWS     0.0000E+00
 BOUNDARY OUTFLOWS    0.0000E+00
                      Cl         
                                 
 CONCENTRATION                           
 Segment    1         0.0000E+00
 Segment    2         0.0000E+00
 Segment    3         0.0000E+00
 Segment    4         0.0000E+00
 Segment    5         0.0000E+00
 Segment    6         0.0000E+00
 Segment    7         0.0000E+00
 Segment    8         0.0000E+00
 
  14.58% Completed


 DUMP OF INTERMEDIATE RESULTS IN SELECTED SEGMENTS
  TIME =   2D  1H  0M  0S .
 
 TOTAL MASS IN SYSTEM 0.0000E+00
 CHANGES BY PROCESSES 0.0000E+00
 CHANGES BY LOADS     0.0000E+00
 BOUNDARY INFLOWS     0.0000E+00
 BOUNDARY OUTFLOWS    0.0000E+00
                      Cl         
                                 
 CONCENTRATION                           
 Segment    1         0.0000E+00
 Segment    2         0.0000E+00
 Segment    3         0.0000E+00
 Segment    4         0.0000E+00
 Segment    5         0.0000E+00
 Segment    6         0.0000E+00
 Segment    7         0.0000E+00
 Segment    8         0.0000E+00
 
1
                                             Water quality calculation Sobek-WQ      
                                                                                     
                                                                                     
                                             T0: 1996.01.01 00:00:00  (scu=       1s)
  14.88% Completed


 DUMP OF INTERMEDIATE RESULTS IN SELECTED SEGMENTS
  TIME =   2D  2H  0M  0S .
 
 TOTAL MASS IN SYSTEM 0.0000E+00
 CHANGES BY PROCESSES 0.0000E+00
 CHANGES BY LOADS     0.0000E+00
 BOUNDARY INFLOWS     0.0000E+00
 BOUNDARY OUTFLOWS    0.0000E+00
                      Cl         
                                 
 CONCENTRATION                           
 Segment    1         0.0000E+00
 Segment    2         0.0000E+00
 Segment    3         0.0000E+00
 Segment    4         0.0000E+00
 Segment    5         0.0000E+00
 Segment    6         0.0000E+00
 Segment    7         0.0000E+00
 Segment    8         0.0000E+00
 
  15.18% Completed


 DUMP OF INTERMEDIATE RESULTS IN SELECTED SEGMENTS
  TIME =   2D  3H  0M  0S .
 
 TOTAL MASS IN SYSTEM 0.0000E+00
 CHANGES BY PROCESSES 0.0000E+00
 CHANGES BY LOADS     0.0000E+00
 BOUNDARY INFLOWS     0.0000E+00
 BOUNDARY OUTFLOWS    0.0000E+00
                      Cl         
                                 
 CONCENTRATION                           
 Segment    1         0.0000E+00
 Segment    2         0.0000E+00
 Segment    3         0.0000E+00
 Segment    4         0.0000E+00
 Segment    5         0.0000E+00
 Segment    6         0.0000E+00
 Segment    7         0.0000E+00
 Segment    8         0.0000E+00
 
1
                                             Water quality calculation Sobek-WQ      
                                                                                     
                                                                                     
                                             T0: 1996.01.01 00:00:00  (scu=       1s)
  15.48% Completed


 DUMP OF INTERMEDIATE RESULTS IN SELECTED SEGMENTS
  TIME =   2D  4H  0M  0S .
 
 TOTAL MASS IN SYSTEM 0.0000E+00
 CHANGES BY PROCESSES 0.0000E+00
 CHANGES BY LOADS     0.0000E+00
 BOUNDARY INFLOWS     0.0000E+00
 BOUNDARY OUTFLOWS    0.0000E+00
                      Cl         
                                 
 CONCENTRATION                           
 Segment    1         0.0000E+00
 Segment    2         0.0000E+00
 Segment    3         0.0000E+00
 Segment    4         0.0000E+00
 Segment    5         0.0000E+00
 Segment    6         0.0000E+00
 Segment    7         0.0000E+00
 Segment    8         0.0000E+00
 
  15.77% Completed


 DUMP OF INTERMEDIATE RESULTS IN SELECTED SEGMENTS
  TIME =   2D  5H  0M  0S .
 
 TOTAL MASS IN SYSTEM 0.0000E+00
 CHANGES BY PROCESSES 0.0000E+00
 CHANGES BY LOADS     0.0000E+00
 BOUNDARY INFLOWS     0.0000E+00
 BOUNDARY OUTFLOWS    0.0000E+00
                      Cl         
                                 
 CONCENTRATION                           
 Segment    1         0.0000E+00
 Segment    2         0.0000E+00
 Segment    3         0.0000E+00
 Segment    4         0.0000E+00
 Segment    5         0.0000E+00
 Segment    6         0.0000E+00
 Segment    7         0.0000E+00
 Segment    8         0.0000E+00
 
1
                                             Water quality calculation Sobek-WQ      
                                                                                     
                                                                                     
                                             T0: 1996.01.01 00:00:00  (scu=       1s)
  16.07% Completed


 DUMP OF INTERMEDIATE RESULTS IN SELECTED SEGMENTS
  TIME =   2D  6H  0M  0S .
 
 TOTAL MASS IN SYSTEM 0.0000E+00
 CHANGES BY PROCESSES 0.0000E+00
 CHANGES BY LOADS     0.0000E+00
 BOUNDARY INFLOWS     0.0000E+00
 BOUNDARY OUTFLOWS    0.0000E+00
                      Cl         
                                 
 CONCENTRATION                           
 Segment    1         0.0000E+00
 Segment    2         0.0000E+00
 Segment    3         0.0000E+00
 Segment    4         0.0000E+00
 Segment    5         0.0000E+00
 Segment    6         0.0000E+00
 Segment    7         0.0000E+00
 Segment    8         0.0000E+00
 
  16.37% Completed


 DUMP OF INTERMEDIATE RESULTS IN SELECTED SEGMENTS
  TIME =   2D  7H  0M  0S .
 
 TOTAL MASS IN SYSTEM 0.0000E+00
 CHANGES BY PROCESSES 0.0000E+00
 CHANGES BY LOADS     0.0000E+00
 BOUNDARY INFLOWS     0.0000E+00
 BOUNDARY OUTFLOWS    0.0000E+00
                      Cl         
                                 
 CONCENTRATION                           
 Segment    1         0.0000E+00
 Segment    2         0.0000E+00
 Segment    3         0.0000E+00
 Segment    4         0.0000E+00
 Segment    5         0.0000E+00
 Segment    6         0.0000E+00
 Segment    7         0.0000E+00
 Segment    8         0.0000E+00
 
1
                                             Water quality calculation Sobek-WQ      
                                                                                     
                                                                                     
                                             T0: 1996.01.01 00:00:00  (scu=       1s)
  16.67% Completed


 DUMP OF INTERMEDIATE RESULTS IN SELECTED SEGMENTS
  TIME =   2D  8H  0M  0S .
 
 TOTAL MASS IN SYSTEM 0.0000E+00
 CHANGES BY PROCESSES 0.0000E+00
 CHANGES BY LOADS     0.0000E+00
 BOUNDARY INFLOWS     0.0000E+00
 BOUNDARY OUTFLOWS    0.0000E+00
                      Cl         
                                 
 CONCENTRATION                           
 Segment    1         0.0000E+00
 Segment    2         0.0000E+00
 Segment    3         0.0000E+00
 Segment    4         0.0000E+00
 Segment    5         0.0000E+00
 Segment    6         0.0000E+00
 Segment    7         0.0000E+00
 Segment    8         0.0000E+00
 
  16.96% Completed


 DUMP OF INTERMEDIATE RESULTS IN SELECTED SEGMENTS
  TIME =   2D  9H  0M  0S .
 
 TOTAL MASS IN SYSTEM 0.0000E+00
 CHANGES BY PROCESSES 0.0000E+00
 CHANGES BY LOADS     0.0000E+00
 BOUNDARY INFLOWS     0.0000E+00
 BOUNDARY OUTFLOWS    0.0000E+00
                      Cl         
                                 
 CONCENTRATION                           
 Segment    1         0.0000E+00
 Segment    2         0.0000E+00
 Segment    3         0.0000E+00
 Segment    4         0.0000E+00
 Segment    5         0.0000E+00
 Segment    6         0.0000E+00
 Segment    7         0.0000E+00
 Segment    8         0.0000E+00
 
1
                                             Water quality calculation Sobek-WQ      
                                                                                     
                                                                                     
                                             T0: 1996.01.01 00:00:00  (scu=       1s)
  17.26% Completed


 DUMP OF INTERMEDIATE RESULTS IN SELECTED SEGMENTS
  TIME =   2D 10H  0M  0S .
 
 TOTAL MASS IN SYSTEM 0.0000E+00
 CHANGES BY PROCESSES 0.0000E+00
 CHANGES BY LOADS     0.0000E+00
 BOUNDARY INFLOWS     0.0000E+00
 BOUNDARY OUTFLOWS    0.0000E+00
                      Cl         
                                 
 CONCENTRATION                           
 Segment    1         0.0000E+00
 Segment    2         0.0000E+00
 Segment    3         0.0000E+00
 Segment    4         0.0000E+00
 Segment    5         0.0000E+00
 Segment    6         0.0000E+00
 Segment    7         0.0000E+00
 Segment    8         0.0000E+00
 
  17.56% Completed


 DUMP OF INTERMEDIATE RESULTS IN SELECTED SEGMENTS
  TIME =   2D 11H  0M  0S .
 
 TOTAL MASS IN SYSTEM 0.0000E+00
 CHANGES BY PROCESSES 0.0000E+00
 CHANGES BY LOADS     0.0000E+00
 BOUNDARY INFLOWS     0.0000E+00
 BOUNDARY OUTFLOWS    0.0000E+00
                      Cl         
                                 
 CONCENTRATION                           
 Segment    1         0.0000E+00
 Segment    2         0.0000E+00
 Segment    3         0.0000E+00
 Segment    4         0.0000E+00
 Segment    5         0.0000E+00
 Segment    6         0.0000E+00
 Segment    7         0.0000E+00
 Segment    8         0.0000E+00
 
1
                                             Water quality calculation Sobek-WQ      
                                                                                     
                                                                                     
                                             T0: 1996.01.01 00:00:00  (scu=       1s)
  17.86% Completed


 DUMP OF INTERMEDIATE RESULTS IN SELECTED SEGMENTS
  TIME =   2D 12H  0M  0S .
 
 TOTAL MASS IN SYSTEM 0.0000E+00
 CHANGES BY PROCESSES 0.0000E+00
 CHANGES BY LOADS     0.0000E+00
 BOUNDARY INFLOWS     0.0000E+00
 BOUNDARY OUTFLOWS    0.0000E+00
                      Cl         
                                 
 CONCENTRATION                           
 Segment    1         0.0000E+00
 Segment    2         0.0000E+00
 Segment    3         0.0000E+00
 Segment    4         0.0000E+00
 Segment    5         0.0000E+00
 Segment    6         0.0000E+00
 Segment    7         0.0000E+00
 Segment    8         0.0000E+00
 
  18.15% Completed


 DUMP OF INTERMEDIATE RESULTS IN SELECTED SEGMENTS
  TIME =   2D 13H  0M  0S .
 
 TOTAL MASS IN SYSTEM 0.0000E+00
 CHANGES BY PROCESSES 0.0000E+00
 CHANGES BY LOADS     0.0000E+00
 BOUNDARY INFLOWS     0.0000E+00
 BOUNDARY OUTFLOWS    0.0000E+00
                      Cl         
                                 
 CONCENTRATION                           
 Segment    1         0.0000E+00
 Segment    2         0.0000E+00
 Segment    3         0.0000E+00
 Segment    4         0.0000E+00
 Segment    5         0.0000E+00
 Segment    6         0.0000E+00
 Segment    7         0.0000E+00
 Segment    8         0.0000E+00
 
1
                                             Water quality calculation Sobek-WQ      
                                                                                     
                                                                                     
                                             T0: 1996.01.01 00:00:00  (scu=       1s)
  18.45% Completed


 DUMP OF INTERMEDIATE RESULTS IN SELECTED SEGMENTS
  TIME =   2D 14H  0M  0S .
 
 TOTAL MASS IN SYSTEM 0.0000E+00
 CHANGES BY PROCESSES 0.0000E+00
 CHANGES BY LOADS     0.0000E+00
 BOUNDARY INFLOWS     0.0000E+00
 BOUNDARY OUTFLOWS    0.0000E+00
                      Cl         
                                 
 CONCENTRATION                           
 Segment    1         0.0000E+00
 Segment    2         0.0000E+00
 Segment    3         0.0000E+00
 Segment    4         0.0000E+00
 Segment    5         0.0000E+00
 Segment    6         0.0000E+00
 Segment    7         0.0000E+00
 Segment    8         0.0000E+00
 
  18.75% Completed


 DUMP OF INTERMEDIATE RESULTS IN SELECTED SEGMENTS
  TIME =   2D 15H  0M  0S .
 
 TOTAL MASS IN SYSTEM 0.0000E+00
 CHANGES BY PROCESSES 0.0000E+00
 CHANGES BY LOADS     0.0000E+00
 BOUNDARY INFLOWS     0.0000E+00
 BOUNDARY OUTFLOWS    0.0000E+00
                      Cl         
                                 
 CONCENTRATION                           
 Segment    1         0.0000E+00
 Segment    2         0.0000E+00
 Segment    3         0.0000E+00
 Segment    4         0.0000E+00
 Segment    5         0.0000E+00
 Segment    6         0.0000E+00
 Segment    7         0.0000E+00
 Segment    8         0.0000E+00
 
1
                                             Water quality calculation Sobek-WQ      
                                                                                     
                                                                                     
                                             T0: 1996.01.01 00:00:00  (scu=       1s)
  19.05% Completed


 DUMP OF INTERMEDIATE RESULTS IN SELECTED SEGMENTS
  TIME =   2D 16H  0M  0S .
 
 TOTAL MASS IN SYSTEM 0.0000E+00
 CHANGES BY PROCESSES 0.0000E+00
 CHANGES BY LOADS     0.0000E+00
 BOUNDARY INFLOWS     0.0000E+00
 BOUNDARY OUTFLOWS    0.0000E+00
                      Cl         
                                 
 CONCENTRATION                           
 Segment    1         0.0000E+00
 Segment    2         0.0000E+00
 Segment    3         0.0000E+00
 Segment    4         0.0000E+00
 Segment    5         0.0000E+00
 Segment    6         0.0000E+00
 Segment    7         0.0000E+00
 Segment    8         0.0000E+00
 
  19.35% Completed


 DUMP OF INTERMEDIATE RESULTS IN SELECTED SEGMENTS
  TIME =   2D 17H  0M  0S .
 
 TOTAL MASS IN SYSTEM 0.0000E+00
 CHANGES BY PROCESSES 0.0000E+00
 CHANGES BY LOADS     0.0000E+00
 BOUNDARY INFLOWS     0.0000E+00
 BOUNDARY OUTFLOWS    0.0000E+00
                      Cl         
                                 
 CONCENTRATION                           
 Segment    1         0.0000E+00
 Segment    2         0.0000E+00
 Segment    3         0.0000E+00
 Segment    4         0.0000E+00
 Segment    5         0.0000E+00
 Segment    6         0.0000E+00
 Segment    7         0.0000E+00
 Segment    8         0.0000E+00
 
1
                                             Water quality calculation Sobek-WQ      
                                                                                     
                                                                                     
                                             T0: 1996.01.01 00:00:00  (scu=       1s)
  19.64% Completed


 DUMP OF INTERMEDIATE RESULTS IN SELECTED SEGMENTS
  TIME =   2D 18H  0M  0S .
 
 TOTAL MASS IN SYSTEM 0.0000E+00
 CHANGES BY PROCESSES 0.0000E+00
 CHANGES BY LOADS     0.0000E+00
 BOUNDARY INFLOWS     0.0000E+00
 BOUNDARY OUTFLOWS    0.0000E+00
                      Cl         
                                 
 CONCENTRATION                           
 Segment    1         0.0000E+00
 Segment    2         0.0000E+00
 Segment    3         0.0000E+00
 Segment    4         0.0000E+00
 Segment    5         0.0000E+00
 Segment    6         0.0000E+00
 Segment    7         0.0000E+00
 Segment    8         0.0000E+00
 
  19.94% Completed


 DUMP OF INTERMEDIATE RESULTS IN SELECTED SEGMENTS
  TIME =   2D 19H  0M  0S .
 
 TOTAL MASS IN SYSTEM 0.0000E+00
 CHANGES BY PROCESSES 0.0000E+00
 CHANGES BY LOADS     0.0000E+00
 BOUNDARY INFLOWS     0.0000E+00
 BOUNDARY OUTFLOWS    0.0000E+00
                      Cl         
                                 
 CONCENTRATION                           
 Segment    1         0.0000E+00
 Segment    2         0.0000E+00
 Segment    3         0.0000E+00
 Segment    4         0.0000E+00
 Segment    5         0.0000E+00
 Segment    6         0.0000E+00
 Segment    7         0.0000E+00
 Segment    8         0.0000E+00
 
1
                                             Water quality calculation Sobek-WQ      
                                                                                     
                                                                                     
                                             T0: 1996.01.01 00:00:00  (scu=       1s)
  20.24% Completed


 DUMP OF INTERMEDIATE RESULTS IN SELECTED SEGMENTS
  TIME =   2D 20H  0M  0S .
 
 TOTAL MASS IN SYSTEM 0.0000E+00
 CHANGES BY PROCESSES 0.0000E+00
 CHANGES BY LOADS     0.0000E+00
 BOUNDARY INFLOWS     0.0000E+00
 BOUNDARY OUTFLOWS    0.0000E+00
                      Cl         
                                 
 CONCENTRATION                           
 Segment    1         0.0000E+00
 Segment    2         0.0000E+00
 Segment    3         0.0000E+00
 Segment    4         0.0000E+00
 Segment    5         0.0000E+00
 Segment    6         0.0000E+00
 Segment    7         0.0000E+00
 Segment    8         0.0000E+00
 
  20.54% Completed


 DUMP OF INTERMEDIATE RESULTS IN SELECTED SEGMENTS
  TIME =   2D 21H  0M  0S .
 
 TOTAL MASS IN SYSTEM 0.0000E+00
 CHANGES BY PROCESSES 0.0000E+00
 CHANGES BY LOADS     0.0000E+00
 BOUNDARY INFLOWS     0.0000E+00
 BOUNDARY OUTFLOWS    0.0000E+00
                      Cl         
                                 
 CONCENTRATION                           
 Segment    1         0.0000E+00
 Segment    2         0.0000E+00
 Segment    3         0.0000E+00
 Segment    4         0.0000E+00
 Segment    5         0.0000E+00
 Segment    6         0.0000E+00
 Segment    7         0.0000E+00
 Segment    8         0.0000E+00
 
1
                                             Water quality calculation Sobek-WQ      
                                                                                     
                                                                                     
                                             T0: 1996.01.01 00:00:00  (scu=       1s)
  20.83% Completed


 DUMP OF INTERMEDIATE RESULTS IN SELECTED SEGMENTS
  TIME =   2D 22H  0M  0S .
 
 TOTAL MASS IN SYSTEM 0.0000E+00
 CHANGES BY PROCESSES 0.0000E+00
 CHANGES BY LOADS     0.0000E+00
 BOUNDARY INFLOWS     0.0000E+00
 BOUNDARY OUTFLOWS    0.0000E+00
                      Cl         
                                 
 CONCENTRATION                           
 Segment    1         0.0000E+00
 Segment    2         0.0000E+00
 Segment    3         0.0000E+00
 Segment    4         0.0000E+00
 Segment    5         0.0000E+00
 Segment    6         0.0000E+00
 Segment    7         0.0000E+00
 Segment    8         0.0000E+00
 
  21.13% Completed


 DUMP OF INTERMEDIATE RESULTS IN SELECTED SEGMENTS
  TIME =   2D 23H  0M  0S .
 
 TOTAL MASS IN SYSTEM 0.0000E+00
 CHANGES BY PROCESSES 0.0000E+00
 CHANGES BY LOADS     0.0000E+00
 BOUNDARY INFLOWS     0.0000E+00
 BOUNDARY OUTFLOWS    0.0000E+00
                      Cl         
                                 
 CONCENTRATION                           
 Segment    1         0.0000E+00
 Segment    2         0.0000E+00
 Segment    3         0.0000E+00
 Segment    4         0.0000E+00
 Segment    5         0.0000E+00
 Segment    6         0.0000E+00
 Segment    7         0.0000E+00
 Segment    8         0.0000E+00
 
1
                                             Water quality calculation Sobek-WQ      
                                                                                     
                                                                                     
                                             T0: 1996.01.01 00:00:00  (scu=       1s)
  21.43% Completed


 DUMP OF INTERMEDIATE RESULTS IN SELECTED SEGMENTS
  TIME =   3D  0H  0M  0S .
 
 TOTAL MASS IN SYSTEM 0.0000E+00
 CHANGES BY PROCESSES 0.0000E+00
 CHANGES BY LOADS     0.0000E+00
 BOUNDARY INFLOWS     0.0000E+00
 BOUNDARY OUTFLOWS    0.0000E+00
                      Cl         
                                 
 CONCENTRATION                           
 Segment    1         0.0000E+00
 Segment    2         0.0000E+00
 Segment    3         0.0000E+00
 Segment    4         0.0000E+00
 Segment    5         0.0000E+00
 Segment    6         0.0000E+00
 Segment    7         0.0000E+00
 Segment    8         0.0000E+00
 
  21.73% Completed


 DUMP OF INTERMEDIATE RESULTS IN SELECTED SEGMENTS
  TIME =   3D  1H  0M  0S .
 
 TOTAL MASS IN SYSTEM 0.0000E+00
 CHANGES BY PROCESSES 0.0000E+00
 CHANGES BY LOADS     0.0000E+00
 BOUNDARY INFLOWS     0.0000E+00
 BOUNDARY OUTFLOWS    0.0000E+00
                      Cl         
                                 
 CONCENTRATION                           
 Segment    1         0.0000E+00
 Segment    2         0.0000E+00
 Segment    3         0.0000E+00
 Segment    4         0.0000E+00
 Segment    5         0.0000E+00
 Segment    6         0.0000E+00
 Segment    7         0.0000E+00
 Segment    8         0.0000E+00
 
1
                                             Water quality calculation Sobek-WQ      
                                                                                     
                                                                                     
                                             T0: 1996.01.01 00:00:00  (scu=       1s)
  22.02% Completed


 DUMP OF INTERMEDIATE RESULTS IN SELECTED SEGMENTS
  TIME =   3D  2H  0M  0S .
 
 TOTAL MASS IN SYSTEM 0.0000E+00
 CHANGES BY PROCESSES 0.0000E+00
 CHANGES BY LOADS     0.0000E+00
 BOUNDARY INFLOWS     0.0000E+00
 BOUNDARY OUTFLOWS    0.0000E+00
                      Cl         
                                 
 CONCENTRATION                           
 Segment    1         0.0000E+00
 Segment    2         0.0000E+00
 Segment    3         0.0000E+00
 Segment    4         0.0000E+00
 Segment    5         0.0000E+00
 Segment    6         0.0000E+00
 Segment    7         0.0000E+00
 Segment    8         0.0000E+00
 
  22.32% Completed


 DUMP OF INTERMEDIATE RESULTS IN SELECTED SEGMENTS
  TIME =   3D  3H  0M  0S .
 
 TOTAL MASS IN SYSTEM 0.0000E+00
 CHANGES BY PROCESSES 0.0000E+00
 CHANGES BY LOADS     0.0000E+00
 BOUNDARY INFLOWS     0.0000E+00
 BOUNDARY OUTFLOWS    0.0000E+00
                      Cl         
                                 
 CONCENTRATION                           
 Segment    1         0.0000E+00
 Segment    2         0.0000E+00
 Segment    3         0.0000E+00
 Segment    4         0.0000E+00
 Segment    5         0.0000E+00
 Segment    6         0.0000E+00
 Segment    7         0.0000E+00
 Segment    8         0.0000E+00
 
1
                                             Water quality calculation Sobek-WQ      
                                                                                     
                                                                                     
                                             T0: 1996.01.01 00:00:00  (scu=       1s)
  22.62% Completed


 DUMP OF INTERMEDIATE RESULTS IN SELECTED SEGMENTS
  TIME =   3D  4H  0M  0S .
 
 TOTAL MASS IN SYSTEM 0.0000E+00
 CHANGES BY PROCESSES 0.0000E+00
 CHANGES BY LOADS     0.0000E+00
 BOUNDARY INFLOWS     0.0000E+00
 BOUNDARY OUTFLOWS    0.0000E+00
                      Cl         
                                 
 CONCENTRATION                           
 Segment    1         0.0000E+00
 Segment    2         0.0000E+00
 Segment    3         0.0000E+00
 Segment    4         0.0000E+00
 Segment    5         0.0000E+00
 Segment    6         0.0000E+00
 Segment    7         0.0000E+00
 Segment    8         0.0000E+00
 
  22.92% Completed


 DUMP OF INTERMEDIATE RESULTS IN SELECTED SEGMENTS
  TIME =   3D  5H  0M  0S .
 
 TOTAL MASS IN SYSTEM 0.0000E+00
 CHANGES BY PROCESSES 0.0000E+00
 CHANGES BY LOADS     0.0000E+00
 BOUNDARY INFLOWS     0.0000E+00
 BOUNDARY OUTFLOWS    0.0000E+00
                      Cl         
                                 
 CONCENTRATION                           
 Segment    1         0.0000E+00
 Segment    2         0.0000E+00
 Segment    3         0.0000E+00
 Segment    4         0.0000E+00
 Segment    5         0.0000E+00
 Segment    6         0.0000E+00
 Segment    7         0.0000E+00
 Segment    8         0.0000E+00
 
1
                                             Water quality calculation Sobek-WQ      
                                                                                     
                                                                                     
                                             T0: 1996.01.01 00:00:00  (scu=       1s)
  23.21% Completed


 DUMP OF INTERMEDIATE RESULTS IN SELECTED SEGMENTS
  TIME =   3D  6H  0M  0S .
 
 TOTAL MASS IN SYSTEM 0.0000E+00
 CHANGES BY PROCESSES 0.0000E+00
 CHANGES BY LOADS     0.0000E+00
 BOUNDARY INFLOWS     0.0000E+00
 BOUNDARY OUTFLOWS    0.0000E+00
                      Cl         
                                 
 CONCENTRATION                           
 Segment    1         0.0000E+00
 Segment    2         0.0000E+00
 Segment    3         0.0000E+00
 Segment    4         0.0000E+00
 Segment    5         0.0000E+00
 Segment    6         0.0000E+00
 Segment    7         0.0000E+00
 Segment    8         0.0000E+00
 
  23.51% Completed


 DUMP OF INTERMEDIATE RESULTS IN SELECTED SEGMENTS
  TIME =   3D  7H  0M  0S .
 
 TOTAL MASS IN SYSTEM 0.0000E+00
 CHANGES BY PROCESSES 0.0000E+00
 CHANGES BY LOADS     0.0000E+00
 BOUNDARY INFLOWS     0.0000E+00
 BOUNDARY OUTFLOWS    0.0000E+00
                      Cl         
                                 
 CONCENTRATION                           
 Segment    1         0.0000E+00
 Segment    2         0.0000E+00
 Segment    3         0.0000E+00
 Segment    4         0.0000E+00
 Segment    5         0.0000E+00
 Segment    6         0.0000E+00
 Segment    7         0.0000E+00
 Segment    8         0.0000E+00
 
1
                                             Water quality calculation Sobek-WQ      
                                                                                     
                                                                                     
                                             T0: 1996.01.01 00:00:00  (scu=       1s)
  23.81% Completed


 DUMP OF INTERMEDIATE RESULTS IN SELECTED SEGMENTS
  TIME =   3D  8H  0M  0S .
 
 TOTAL MASS IN SYSTEM 0.0000E+00
 CHANGES BY PROCESSES 0.0000E+00
 CHANGES BY LOADS     0.0000E+00
 BOUNDARY INFLOWS     0.0000E+00
 BOUNDARY OUTFLOWS    0.0000E+00
                      Cl         
                                 
 CONCENTRATION                           
 Segment    1         0.0000E+00
 Segment    2         0.0000E+00
 Segment    3         0.0000E+00
 Segment    4         0.0000E+00
 Segment    5         0.0000E+00
 Segment    6         0.0000E+00
 Segment    7         0.0000E+00
 Segment    8         0.0000E+00
 
  24.11% Completed


 DUMP OF INTERMEDIATE RESULTS IN SELECTED SEGMENTS
  TIME =   3D  9H  0M  0S .
 
 TOTAL MASS IN SYSTEM 0.0000E+00
 CHANGES BY PROCESSES 0.0000E+00
 CHANGES BY LOADS     0.0000E+00
 BOUNDARY INFLOWS     0.0000E+00
 BOUNDARY OUTFLOWS    0.0000E+00
                      Cl         
                                 
 CONCENTRATION                           
 Segment    1         0.0000E+00
 Segment    2         0.0000E+00
 Segment    3         0.0000E+00
 Segment    4         0.0000E+00
 Segment    5         0.0000E+00
 Segment    6         0.0000E+00
 Segment    7         0.0000E+00
 Segment    8         0.0000E+00
 
1
                                             Water quality calculation Sobek-WQ      
                                                                                     
                                                                                     
                                             T0: 1996.01.01 00:00:00  (scu=       1s)
  24.40% Completed


 DUMP OF INTERMEDIATE RESULTS IN SELECTED SEGMENTS
  TIME =   3D 10H  0M  0S .
 
 TOTAL MASS IN SYSTEM 0.0000E+00
 CHANGES BY PROCESSES 0.0000E+00
 CHANGES BY LOADS     0.0000E+00
 BOUNDARY INFLOWS     0.0000E+00
 BOUNDARY OUTFLOWS    0.0000E+00
                      Cl         
                                 
 CONCENTRATION                           
 Segment    1         0.0000E+00
 Segment    2         0.0000E+00
 Segment    3         0.0000E+00
 Segment    4         0.0000E+00
 Segment    5         0.0000E+00
 Segment    6         0.0000E+00
 Segment    7         0.0000E+00
 Segment    8         0.0000E+00
 
  24.70% Completed


 DUMP OF INTERMEDIATE RESULTS IN SELECTED SEGMENTS
  TIME =   3D 11H  0M  0S .
 
 TOTAL MASS IN SYSTEM 0.0000E+00
 CHANGES BY PROCESSES 0.0000E+00
 CHANGES BY LOADS     0.0000E+00
 BOUNDARY INFLOWS     0.0000E+00
 BOUNDARY OUTFLOWS    0.0000E+00
                      Cl         
                                 
 CONCENTRATION                           
 Segment    1         0.0000E+00
 Segment    2         0.0000E+00
 Segment    3         0.0000E+00
 Segment    4         0.0000E+00
 Segment    5         0.0000E+00
 Segment    6         0.0000E+00
 Segment    7         0.0000E+00
 Segment    8         0.0000E+00
 
1
                                             Water quality calculation Sobek-WQ      
                                                                                     
                                                                                     
                                             T0: 1996.01.01 00:00:00  (scu=       1s)
  25.00% Completed


 DUMP OF INTERMEDIATE RESULTS IN SELECTED SEGMENTS
  TIME =   3D 12H  0M  0S .
 
 TOTAL MASS IN SYSTEM 0.0000E+00
 CHANGES BY PROCESSES 0.0000E+00
 CHANGES BY LOADS     0.0000E+00
 BOUNDARY INFLOWS     0.0000E+00
 BOUNDARY OUTFLOWS    0.0000E+00
                      Cl         
                                 
 CONCENTRATION                           
 Segment    1         0.0000E+00
 Segment    2         0.0000E+00
 Segment    3         0.0000E+00
 Segment    4         0.0000E+00
 Segment    5         0.0000E+00
 Segment    6         0.0000E+00
 Segment    7         0.0000E+00
 Segment    8         0.0000E+00
 
  25.30% Completed


 DUMP OF INTERMEDIATE RESULTS IN SELECTED SEGMENTS
  TIME =   3D 13H  0M  0S .
 
 TOTAL MASS IN SYSTEM 0.0000E+00
 CHANGES BY PROCESSES 0.0000E+00
 CHANGES BY LOADS     0.0000E+00
 BOUNDARY INFLOWS     0.0000E+00
 BOUNDARY OUTFLOWS    0.0000E+00
                      Cl         
                                 
 CONCENTRATION                           
 Segment    1         0.0000E+00
 Segment    2         0.0000E+00
 Segment    3         0.0000E+00
 Segment    4         0.0000E+00
 Segment    5         0.0000E+00
 Segment    6         0.0000E+00
 Segment    7         0.0000E+00
 Segment    8         0.0000E+00
 
1
                                             Water quality calculation Sobek-WQ      
                                                                                     
                                                                                     
                                             T0: 1996.01.01 00:00:00  (scu=       1s)
  25.60% Completed


 DUMP OF INTERMEDIATE RESULTS IN SELECTED SEGMENTS
  TIME =   3D 14H  0M  0S .
 
 TOTAL MASS IN SYSTEM 0.0000E+00
 CHANGES BY PROCESSES 0.0000E+00
 CHANGES BY LOADS     0.0000E+00
 BOUNDARY INFLOWS     0.0000E+00
 BOUNDARY OUTFLOWS    0.0000E+00
                      Cl         
                                 
 CONCENTRATION                           
 Segment    1         0.0000E+00
 Segment    2         0.0000E+00
 Segment    3         0.0000E+00
 Segment    4         0.0000E+00
 Segment    5         0.0000E+00
 Segment    6         0.0000E+00
 Segment    7         0.0000E+00
 Segment    8         0.0000E+00
 
  25.89% Completed


 DUMP OF INTERMEDIATE RESULTS IN SELECTED SEGMENTS
  TIME =   3D 15H  0M  0S .
 
 TOTAL MASS IN SYSTEM 0.0000E+00
 CHANGES BY PROCESSES 0.0000E+00
 CHANGES BY LOADS     0.0000E+00
 BOUNDARY INFLOWS     0.0000E+00
 BOUNDARY OUTFLOWS    0.0000E+00
                      Cl         
                                 
 CONCENTRATION                           
 Segment    1         0.0000E+00
 Segment    2         0.0000E+00
 Segment    3         0.0000E+00
 Segment    4         0.0000E+00
 Segment    5         0.0000E+00
 Segment    6         0.0000E+00
 Segment    7         0.0000E+00
 Segment    8         0.0000E+00
 
1
                                             Water quality calculation Sobek-WQ      
                                                                                     
                                                                                     
                                             T0: 1996.01.01 00:00:00  (scu=       1s)
  26.19% Completed


 DUMP OF INTERMEDIATE RESULTS IN SELECTED SEGMENTS
  TIME =   3D 16H  0M  0S .
 
 TOTAL MASS IN SYSTEM 0.0000E+00
 CHANGES BY PROCESSES 0.0000E+00
 CHANGES BY LOADS     0.0000E+00
 BOUNDARY INFLOWS     0.0000E+00
 BOUNDARY OUTFLOWS    0.0000E+00
                      Cl         
                                 
 CONCENTRATION                           
 Segment    1         0.0000E+00
 Segment    2         0.0000E+00
 Segment    3         0.0000E+00
 Segment    4         0.0000E+00
 Segment    5         0.0000E+00
 Segment    6         0.0000E+00
 Segment    7         0.0000E+00
 Segment    8         0.0000E+00
 
  26.49% Completed


 DUMP OF INTERMEDIATE RESULTS IN SELECTED SEGMENTS
  TIME =   3D 17H  0M  0S .
 
 TOTAL MASS IN SYSTEM 0.0000E+00
 CHANGES BY PROCESSES 0.0000E+00
 CHANGES BY LOADS     0.0000E+00
 BOUNDARY INFLOWS     0.0000E+00
 BOUNDARY OUTFLOWS    0.0000E+00
                      Cl         
                                 
 CONCENTRATION                           
 Segment    1         0.0000E+00
 Segment    2         0.0000E+00
 Segment    3         0.0000E+00
 Segment    4         0.0000E+00
 Segment    5         0.0000E+00
 Segment    6         0.0000E+00
 Segment    7         0.0000E+00
 Segment    8         0.0000E+00
 
1
                                             Water quality calculation Sobek-WQ      
                                                                                     
                                                                                     
                                             T0: 1996.01.01 00:00:00  (scu=       1s)
  26.79% Completed


 DUMP OF INTERMEDIATE RESULTS IN SELECTED SEGMENTS
  TIME =   3D 18H  0M  0S .
 
 TOTAL MASS IN SYSTEM 0.0000E+00
 CHANGES BY PROCESSES 0.0000E+00
 CHANGES BY LOADS     0.0000E+00
 BOUNDARY INFLOWS     0.0000E+00
 BOUNDARY OUTFLOWS    0.0000E+00
                      Cl         
                                 
 CONCENTRATION                           
 Segment    1         0.0000E+00
 Segment    2         0.0000E+00
 Segment    3         0.0000E+00
 Segment    4         0.0000E+00
 Segment    5         0.0000E+00
 Segment    6         0.0000E+00
 Segment    7         0.0000E+00
 Segment    8         0.0000E+00
 
  27.08% Completed


 DUMP OF INTERMEDIATE RESULTS IN SELECTED SEGMENTS
  TIME =   3D 19H  0M  0S .
 
 TOTAL MASS IN SYSTEM 0.0000E+00
 CHANGES BY PROCESSES 0.0000E+00
 CHANGES BY LOADS     0.0000E+00
 BOUNDARY INFLOWS     0.0000E+00
 BOUNDARY OUTFLOWS    0.0000E+00
                      Cl         
                                 
 CONCENTRATION                           
 Segment    1         0.0000E+00
 Segment    2         0.0000E+00
 Segment    3         0.0000E+00
 Segment    4         0.0000E+00
 Segment    5         0.0000E+00
 Segment    6         0.0000E+00
 Segment    7         0.0000E+00
 Segment    8         0.0000E+00
 
1
                                             Water quality calculation Sobek-WQ      
                                                                                     
                                                                                     
                                             T0: 1996.01.01 00:00:00  (scu=       1s)
  27.38% Completed


 DUMP OF INTERMEDIATE RESULTS IN SELECTED SEGMENTS
  TIME =   3D 20H  0M  0S .
 
 TOTAL MASS IN SYSTEM 0.0000E+00
 CHANGES BY PROCESSES 0.0000E+00
 CHANGES BY LOADS     0.0000E+00
 BOUNDARY INFLOWS     0.0000E+00
 BOUNDARY OUTFLOWS    0.0000E+00
                      Cl         
                                 
 CONCENTRATION                           
 Segment    1         0.0000E+00
 Segment    2         0.0000E+00
 Segment    3         0.0000E+00
 Segment    4         0.0000E+00
 Segment    5         0.0000E+00
 Segment    6         0.0000E+00
 Segment    7         0.0000E+00
 Segment    8         0.0000E+00
 
  27.68% Completed


 DUMP OF INTERMEDIATE RESULTS IN SELECTED SEGMENTS
  TIME =   3D 21H  0M  0S .
 
 TOTAL MASS IN SYSTEM 0.0000E+00
 CHANGES BY PROCESSES 0.0000E+00
 CHANGES BY LOADS     0.0000E+00
 BOUNDARY INFLOWS     0.0000E+00
 BOUNDARY OUTFLOWS    0.0000E+00
                      Cl         
                                 
 CONCENTRATION                           
 Segment    1         0.0000E+00
 Segment    2         0.0000E+00
 Segment    3         0.0000E+00
 Segment    4         0.0000E+00
 Segment    5         0.0000E+00
 Segment    6         0.0000E+00
 Segment    7         0.0000E+00
 Segment    8         0.0000E+00
 
1
                                             Water quality calculation Sobek-WQ      
                                                                                     
                                                                                     
                                             T0: 1996.01.01 00:00:00  (scu=       1s)
  27.98% Completed


 DUMP OF INTERMEDIATE RESULTS IN SELECTED SEGMENTS
  TIME =   3D 22H  0M  0S .
 
 TOTAL MASS IN SYSTEM 0.0000E+00
 CHANGES BY PROCESSES 0.0000E+00
 CHANGES BY LOADS     0.0000E+00
 BOUNDARY INFLOWS     0.0000E+00
 BOUNDARY OUTFLOWS    0.0000E+00
                      Cl         
                                 
 CONCENTRATION                           
 Segment    1         0.0000E+00
 Segment    2         0.0000E+00
 Segment    3         0.0000E+00
 Segment    4         0.0000E+00
 Segment    5         0.0000E+00
 Segment    6         0.0000E+00
 Segment    7         0.0000E+00
 Segment    8         0.0000E+00
 
  28.27% Completed


 DUMP OF INTERMEDIATE RESULTS IN SELECTED SEGMENTS
  TIME =   3D 23H  0M  0S .
 
 TOTAL MASS IN SYSTEM 0.0000E+00
 CHANGES BY PROCESSES 0.0000E+00
 CHANGES BY LOADS     0.0000E+00
 BOUNDARY INFLOWS     0.0000E+00
 BOUNDARY OUTFLOWS    0.0000E+00
                      Cl         
                                 
 CONCENTRATION                           
 Segment    1         0.0000E+00
 Segment    2         0.0000E+00
 Segment    3         0.0000E+00
 Segment    4         0.0000E+00
 Segment    5         0.0000E+00
[...]
 Segment    7         2.3384E-07
 Segment    8         2.5548E-07
 
  93.15% Completed


 DUMP OF INTERMEDIATE RESULTS IN SELECTED SEGMENTS
  TIME =  13D  1H  0M  0S .
 
 TOTAL MASS IN SYSTEM 1.8445E-03
 CHANGES BY PROCESSES 0.0000E+00
 CHANGES BY LOADS     0.0000E+00
 BOUNDARY INFLOWS     0.0000E+00
 BOUNDARY OUTFLOWS    1.8394E-04
                      Cl         
                                 
 CONCENTRATION                           
 Segment    1         1.2235E-08
 Segment    2         2.0880E-08
 Segment    3         4.0095E-08
 Segment    4         6.9537E-08
 Segment    5         1.1069E-07
 Segment    6         1.6163E-07
 Segment    7         2.1263E-07
 Segment    8         2.3231E-07
 
1
                                             Water quality calculation Sobek-WQ      
                                                                                     
                                                                                     
                                             T0: 1996.01.01 00:00:00  (scu=       1s)
  93.45% Completed


 DUMP OF INTERMEDIATE RESULTS IN SELECTED SEGMENTS
  TIME =  13D  2H  0M  0S .
 
 TOTAL MASS IN SYSTEM 1.6773E-03
 CHANGES BY PROCESSES 0.0000E+00
 CHANGES BY LOADS     0.0000E+00
 BOUNDARY INFLOWS     0.0000E+00
 BOUNDARY OUTFLOWS    1.6726E-04
                      Cl         
                                 
 CONCENTRATION                           
 Segment    1         1.1125E-08
 Segment    2         1.8987E-08
 Segment    3         3.6459E-08
 Segment    4         6.3232E-08
 Segment    5         1.0066E-07
 Segment    6         1.4697E-07
 Segment    7         1.9335E-07
 Segment    8         2.1124E-07
 
  93.75% Completed


 DUMP OF INTERMEDIATE RESULTS IN SELECTED SEGMENTS
  TIME =  13D  3H  0M  0S .
 
 TOTAL MASS IN SYSTEM 1.5252E-03
 CHANGES BY PROCESSES 0.0000E+00
 CHANGES BY LOADS     0.0000E+00
 BOUNDARY INFLOWS     0.0000E+00
 BOUNDARY OUTFLOWS    1.5210E-04
                      Cl         
                                 
 CONCENTRATION                           
 Segment    1         1.0116E-08
 Segment    2         1.7265E-08
 Segment    3         3.3153E-08
 Segment    4         5.7498E-08
 Segment    5         9.1528E-08
 Segment    6         1.3365E-07
 Segment    7         1.7582E-07
 Segment    8         1.9209E-07
 
1
                                             Water quality calculation Sobek-WQ      
                                                                                     
                                                                                     
                                             T0: 1996.01.01 00:00:00  (scu=       1s)
  94.05% Completed


 DUMP OF INTERMEDIATE RESULTS IN SELECTED SEGMENTS
  TIME =  13D  4H  0M  0S .
 
 TOTAL MASS IN SYSTEM 1.3869E-03
 CHANGES BY PROCESSES 0.0000E+00
 CHANGES BY LOADS     0.0000E+00
 BOUNDARY INFLOWS     0.0000E+00
 BOUNDARY OUTFLOWS    1.3830E-04
                      Cl         
                                 
 CONCENTRATION                           
 Segment    1         9.1990E-09
 Segment    2         1.5699E-08
 Segment    3         3.0147E-08
 Segment    4         5.2284E-08
 Segment    5         8.3228E-08
 Segment    6         1.2153E-07
 Segment    7         1.5987E-07
 Segment    8         1.7467E-07
 
  94.35% Completed


 DUMP OF INTERMEDIATE RESULTS IN SELECTED SEGMENTS
  TIME =  13D  5H  0M  0S .
 
 TOTAL MASS IN SYSTEM 1.2611E-03
 CHANGES BY PROCESSES 0.0000E+00
 CHANGES BY LOADS     0.0000E+00
 BOUNDARY INFLOWS     0.0000E+00
 BOUNDARY OUTFLOWS    1.2576E-04
                      Cl         
                                 
 CONCENTRATION                           
 Segment    1         8.3648E-09
 Segment    2         1.4276E-08
 Segment    3         2.7413E-08
 Segment    4         4.7543E-08
 Segment    5         7.5681E-08
 Segment    6         1.1051E-07
 Segment    7         1.4538E-07
 Segment    8         1.5883E-07
 
1
                                             Water quality calculation Sobek-WQ      
                                                                                     
                                                                                     
                                             T0: 1996.01.01 00:00:00  (scu=       1s)
  94.64% Completed


 DUMP OF INTERMEDIATE RESULTS IN SELECTED SEGMENTS
  TIME =  13D  6H  0M  0S .
 
 TOTAL MASS IN SYSTEM 1.1468E-03
 CHANGES BY PROCESSES 0.0000E+00
 CHANGES BY LOADS     0.0000E+00
 BOUNDARY INFLOWS     0.0000E+00
 BOUNDARY OUTFLOWS    1.1436E-04
                      Cl         
                                 
 CONCENTRATION                           
 Segment    1         7.6063E-09
 Segment    2         1.2981E-08
 Segment    3         2.4927E-08
 Segment    4         4.3231E-08
 Segment    5         6.8818E-08
 Segment    6         1.0049E-07
 Segment    7         1.3219E-07
 Segment    8         1.4443E-07
 
  94.94% Completed


 DUMP OF INTERMEDIATE RESULTS IN SELECTED SEGMENTS
  TIME =  13D  7H  0M  0S .
 
 TOTAL MASS IN SYSTEM 1.0428E-03
 CHANGES BY PROCESSES 0.0000E+00
 CHANGES BY LOADS     0.0000E+00
 BOUNDARY INFLOWS     0.0000E+00
 BOUNDARY OUTFLOWS    1.0399E-04
                      Cl         
                                 
 CONCENTRATION                           
 Segment    1         6.9166E-09
 Segment    2         1.1804E-08
 Segment    3         2.2667E-08
 Segment    4         3.9311E-08
 Segment    5         6.2578E-08
 Segment    6         9.1374E-08
 Segment    7         1.2021E-07
 Segment    8         1.3133E-07
 
1
                                             Water quality calculation Sobek-WQ      
                                                                                     
                                                                                     
                                             T0: 1996.01.01 00:00:00  (scu=       1s)
  95.24% Completed


 DUMP OF INTERMEDIATE RESULTS IN SELECTED SEGMENTS
  TIME =  13D  8H  0M  0S .
 
 TOTAL MASS IN SYSTEM 9.4821E-04
 CHANGES BY PROCESSES 0.0000E+00
 CHANGES BY LOADS     0.0000E+00
 BOUNDARY INFLOWS     0.0000E+00
 BOUNDARY OUTFLOWS    9.4558E-05
                      Cl         
                                 
 CONCENTRATION                           
 Segment    1         6.2894E-09
 Segment    2         1.0734E-08
 Segment    3         2.0611E-08
 Segment    4         3.5746E-08
 Segment    5         5.6903E-08
 Segment    6         8.3088E-08
 Segment    7         1.0931E-07
 Segment    8         1.1942E-07
 
  95.54% Completed


 DUMP OF INTERMEDIATE RESULTS IN SELECTED SEGMENTS
  TIME =  13D  9H  0M  0S .
 
 TOTAL MASS IN SYSTEM 8.6222E-04
 CHANGES BY PROCESSES 0.0000E+00
 CHANGES BY LOADS     0.0000E+00
 BOUNDARY INFLOWS     0.0000E+00
 BOUNDARY OUTFLOWS    8.5984E-05
                      Cl         
                                 
 CONCENTRATION                           
 Segment    1         5.7190E-09
 Segment    2         9.7604E-09
 Segment    3         1.8742E-08
 Segment    4         3.2505E-08
 Segment    5         5.1743E-08
 Segment    6         7.5553E-08
 Segment    7         9.9395E-08
 Segment    8         1.0859E-07
 
1
                                             Water quality calculation Sobek-WQ      
                                                                                     
                                                                                     
                                             T0: 1996.01.01 00:00:00  (scu=       1s)
  95.83% Completed


 DUMP OF INTERMEDIATE RESULTS IN SELECTED SEGMENTS
  TIME =  13D 10H  0M  0S .
 
 TOTAL MASS IN SYSTEM 7.8404E-04
 CHANGES BY PROCESSES 0.0000E+00
 CHANGES BY LOADS     0.0000E+00
 BOUNDARY INFLOWS     0.0000E+00
 BOUNDARY OUTFLOWS    7.8187E-05
                      Cl         
                                 
 CONCENTRATION                           
 Segment    1         5.2004E-09
 Segment    2         8.8753E-09
 Segment    3         1.7043E-08
 Segment    4         2.9557E-08
 Segment    5         4.7051E-08
 Segment    6         6.8702E-08
 Segment    7         9.0381E-08
 Segment    8         9.8745E-08
 
  96.13% Completed


 DUMP OF INTERMEDIATE RESULTS IN SELECTED SEGMENTS
  TIME =  13D 11H  0M  0S .
 
 TOTAL MASS IN SYSTEM 7.1294E-04
 CHANGES BY PROCESSES 0.0000E+00
 CHANGES BY LOADS     0.0000E+00
 BOUNDARY INFLOWS     0.0000E+00
 BOUNDARY OUTFLOWS    7.1097E-05
                      Cl         
                                 
 CONCENTRATION                           
 Segment    1         4.7289E-09
 Segment    2         8.0705E-09
 Segment    3         1.5497E-08
 Segment    4         2.6877E-08
 Segment    5         4.2785E-08
 Segment    6         6.2472E-08
 Segment    7         8.2186E-08
 Segment    8         8.9791E-08
 
1
                                             Water quality calculation Sobek-WQ      
                                                                                     
                                                                                     
                                             T0: 1996.01.01 00:00:00  (scu=       1s)
  96.43% Completed


 DUMP OF INTERMEDIATE RESULTS IN SELECTED SEGMENTS
  TIME =  13D 12H  0M  0S .
 
 TOTAL MASS IN SYSTEM 6.4829E-04
 CHANGES BY PROCESSES 0.0000E+00
 CHANGES BY LOADS     0.0000E+00
 BOUNDARY INFLOWS     0.0000E+00
 BOUNDARY OUTFLOWS    6.4650E-05
                      Cl         
                                 
 CONCENTRATION                           
 Segment    1         4.3000E-09
 Segment    2         7.3387E-09
 Segment    3         1.4092E-08
 Segment    4         2.4440E-08
 Segment    5         3.8905E-08
 Segment    6         5.6807E-08
 Segment    7         7.4733E-08
 Segment    8         8.1649E-08
 
  96.73% Completed


 DUMP OF INTERMEDIATE RESULTS IN SELECTED SEGMENTS
  TIME =  13D 13H  0M  0S .
 
 TOTAL MASS IN SYSTEM 5.8950E-04
 CHANGES BY PROCESSES 0.0000E+00
 CHANGES BY LOADS     0.0000E+00
 BOUNDARY INFLOWS     0.0000E+00
 BOUNDARY OUTFLOWS    5.8787E-05
                      Cl         
                                 
 CONCENTRATION                           
 Segment    1         3.9101E-09
 Segment    2         6.6732E-09
 Segment    3         1.2814E-08
 Segment    4         2.2224E-08
 Segment    5         3.5377E-08
 Segment    6         5.1656E-08
 Segment    7         6.7956E-08
 Segment    8         7.4245E-08
 
1
                                             Water quality calculation Sobek-WQ      
                                                                                     
                                                                                     
                                             T0: 1996.01.01 00:00:00  (scu=       1s)
  97.02% Completed


 DUMP OF INTERMEDIATE RESULTS IN SELECTED SEGMENTS
  TIME =  13D 14H  0M  0S .
 
 TOTAL MASS IN SYSTEM 5.3605E-04
 CHANGES BY PROCESSES 0.0000E+00
 CHANGES BY LOADS     0.0000E+00
 BOUNDARY INFLOWS     0.0000E+00
 BOUNDARY OUTFLOWS    5.3456E-05
                      Cl         
                                 
 CONCENTRATION                           
 Segment    1         3.5555E-09
 Segment    2         6.0681E-09
 Segment    3         1.1652E-08
 Segment    4         2.0208E-08
 Segment    5         3.2169E-08
 Segment    6         4.6972E-08
 Segment    7         6.1794E-08
 Segment    8         6.7512E-08
 
  97.32% Completed


 DUMP OF INTERMEDIATE RESULTS IN SELECTED SEGMENTS
  TIME =  13D 15H  0M  0S .
 
 TOTAL MASS IN SYSTEM 4.8744E-04
 CHANGES BY PROCESSES 0.0000E+00
 CHANGES BY LOADS     0.0000E+00
 BOUNDARY INFLOWS     0.0000E+00
 BOUNDARY OUTFLOWS    4.8609E-05
                      Cl         
                                 
 CONCENTRATION                           
 Segment    1         3.2331E-09
 Segment    2         5.5178E-09
 Segment    3         1.0595E-08
 Segment    4         1.8376E-08
 Segment    5         2.9252E-08
 Segment    6         4.2712E-08
 Segment    7         5.6190E-08
 Segment    8         6.1390E-08
 
1
                                             Water quality calculation Sobek-WQ      
                                                                                     
                                                                                     
                                             T0: 1996.01.01 00:00:00  (scu=       1s)
  97.62% Completed


 DUMP OF INTERMEDIATE RESULTS IN SELECTED SEGMENTS
  TIME =  13D 16H  0M  0S .
 
 TOTAL MASS IN SYSTEM 4.4324E-04
 CHANGES BY PROCESSES 0.0000E+00
 CHANGES BY LOADS     0.0000E+00
 BOUNDARY INFLOWS     0.0000E+00
 BOUNDARY OUTFLOWS    4.4201E-05
                      Cl         
                                 
 CONCENTRATION                           
 Segment    1         2.9399E-09
 Segment    2         5.0175E-09
 Segment    3         9.6347E-09
 Segment    4         1.6710E-08
 Segment    5         2.6599E-08
 Segment    6         3.8839E-08
 Segment    7         5.1095E-08
 Segment    8         5.5823E-08
 
  97.92% Completed


 DUMP OF INTERMEDIATE RESULTS IN SELECTED SEGMENTS
  TIME =  13D 17H  0M  0S .
 
 TOTAL MASS IN SYSTEM 4.0304E-04
 CHANGES BY PROCESSES 0.0000E+00
 CHANGES BY LOADS     0.0000E+00
 BOUNDARY INFLOWS     0.0000E+00
 BOUNDARY OUTFLOWS    4.0193E-05
                      Cl         
                                 
 CONCENTRATION                           
 Segment    1         2.6734E-09
 Segment    2         4.5625E-09
 Segment    3         8.7610E-09
 Segment    4         1.5194E-08
 Segment    5         2.4187E-08
 Segment    6         3.5317E-08
 Segment    7         4.6462E-08
 Segment    8         5.0761E-08
 
1
                                             Water quality calculation Sobek-WQ      
                                                                                     
                                                                                     
                                             T0: 1996.01.01 00:00:00  (scu=       1s)
  98.21% Completed


 DUMP OF INTERMEDIATE RESULTS IN SELECTED SEGMENTS
  TIME =  13D 18H  0M  0S .
 
 TOTAL MASS IN SYSTEM 3.6650E-04
 CHANGES BY PROCESSES 0.0000E+00
 CHANGES BY LOADS     0.0000E+00
 BOUNDARY INFLOWS     0.0000E+00
 BOUNDARY OUTFLOWS    3.6548E-05
                      Cl         
                                 
 CONCENTRATION                           
 Segment    1         2.4309E-09
 Segment    2         4.1488E-09
 Segment    3         7.9665E-09
 Segment    4         1.3817E-08
 Segment    5         2.1994E-08
 Segment    6         3.2115E-08
 Segment    7         4.2249E-08
 Segment    8         4.6158E-08
 
  98.51% Completed


 DUMP OF INTERMEDIATE RESULTS IN SELECTED SEGMENTS
  TIME =  13D 19H  0M  0S .
 
 TOTAL MASS IN SYSTEM 3.3326E-04
 CHANGES BY PROCESSES 0.0000E+00
 CHANGES BY LOADS     0.0000E+00
 BOUNDARY INFLOWS     0.0000E+00
 BOUNDARY OUTFLOWS    3.3234E-05
                      Cl         
                                 
 CONCENTRATION                           
 Segment    1         2.2105E-09
 Segment    2         3.7725E-09
 Segment    3         7.2441E-09
 Segment    4         1.2564E-08
 Segment    5         1.9999E-08
 Segment    6         2.9202E-08
 Segment    7         3.8417E-08
 Segment    8         4.1973E-08
 
1
                                             Water quality calculation Sobek-WQ      
                                                                                     
                                                                                     
                                             T0: 1996.01.01 00:00:00  (scu=       1s)
  98.81% Completed


 DUMP OF INTERMEDIATE RESULTS IN SELECTED SEGMENTS
  TIME =  13D 20H  0M  0S .
 
 TOTAL MASS IN SYSTEM 3.0304E-04
 CHANGES BY PROCESSES 0.0000E+00
 CHANGES BY LOADS     0.0000E+00
 BOUNDARY INFLOWS     0.0000E+00
 BOUNDARY OUTFLOWS    3.0220E-05
                      Cl         
                                 
 CONCENTRATION                           
 Segment    1         2.0100E-09
 Segment    2         3.4304E-09
 Segment    3         6.5872E-09
 Segment    4         1.1424E-08
 Segment    5         1.8186E-08
 Segment    6         2.6554E-08
 Segment    7         3.4934E-08
 Segment    8         3.8166E-08
 
  99.11% Completed


 DUMP OF INTERMEDIATE RESULTS IN SELECTED SEGMENTS
  TIME =  13D 21H  0M  0S .
 
 TOTAL MASS IN SYSTEM 2.7556E-04
 CHANGES BY PROCESSES 0.0000E+00
 CHANGES BY LOADS     0.0000E+00
 BOUNDARY INFLOWS     0.0000E+00
 BOUNDARY OUTFLOWS    2.7480E-05
                      Cl         
                                 
 CONCENTRATION                           
 Segment    1         1.8278E-09
 Segment    2         3.1194E-09
 Segment    3         5.9899E-09
 Segment    4         1.0388E-08
 Segment    5         1.6537E-08
 Segment    6         2.4146E-08
 Segment    7         3.1766E-08
 Segment    8         3.4706E-08
 
1
                                             Water quality calculation Sobek-WQ      
                                                                                     
                                                                                     
                                             T0: 1996.01.01 00:00:00  (scu=       1s)
  99.40% Completed


 DUMP OF INTERMEDIATE RESULTS IN SELECTED SEGMENTS
  TIME =  13D 22H  0M  0S .
 
 TOTAL MASS IN SYSTEM 2.5057E-04
 CHANGES BY PROCESSES 0.0000E+00
 CHANGES BY LOADS     0.0000E+00
 BOUNDARY INFLOWS     0.0000E+00
 BOUNDARY OUTFLOWS    2.4988E-05
                      Cl         
                                 
 CONCENTRATION                           
 Segment    1         1.6620E-09
 Segment    2         2.8365E-09
 Segment    3         5.4467E-09
 Segment    4         9.4464E-09
 Segment    5         1.5037E-08
 Segment    6         2.1957E-08
 Segment    7         2.8885E-08
 Segment    8         3.1558E-08
 
  99.70% Completed


 DUMP OF INTERMEDIATE RESULTS IN SELECTED SEGMENTS
  TIME =  13D 23H  0M  0S .
 
 TOTAL MASS IN SYSTEM 2.2785E-04
 CHANGES BY PROCESSES 0.0000E+00
 CHANGES BY LOADS     0.0000E+00
 BOUNDARY INFLOWS     0.0000E+00
 BOUNDARY OUTFLOWS    2.2722E-05
                      Cl         
                                 
 CONCENTRATION                           
 Segment    1         1.5113E-09
 Segment    2         2.5793E-09
 Segment    3         4.9528E-09
 Segment    4         8.5898E-09
 Segment    5         1.3674E-08
 Segment    6         1.9966E-08
 Segment    7         2.6266E-08
 Segment    8         2.8697E-08
 

 REWIND ON       UNIT:  23, READING: ..\WORK\Area.dat
 AT SIMULATION TIME:   14D  0H  0M  0S !
 TIME IN FILE:         14D  0H  0M  0S !

 REWIND ON       UNIT:  24, READING: ..\WORK\Flow.dat
 AT SIMULATION TIME:   14D  0H  0M  0S !
 TIME IN FILE:         14D  0H  0M  0S !
1
                                             Water quality calculation Sobek-WQ      
                                                                                     
                                                                                     
                                             T0: 1996.01.01 00:00:00  (scu=       1s)
 100.00% Completed


 DUMP OF INTERMEDIATE RESULTS IN SELECTED SEGMENTS
  TIME =  14D  0H  0M  0S .
 
 TOTAL MASS IN SYSTEM 2.0719E-04
 CHANGES BY PROCESSES 0.0000E+00
 CHANGES BY LOADS     0.0000E+00
 BOUNDARY INFLOWS     0.0000E+00
 BOUNDARY OUTFLOWS    2.0662E-05
                      Cl         
                                 
 CONCENTRATION                           
 Segment    1         1.3743E-09
 Segment    2         2.3454E-09
 Segment    3         4.5037E-09
 Segment    4         7.8108E-09
 Segment    5         1.2434E-08
 Segment    6         1.8155E-08
 Segment    7         2.3884E-08
 Segment    8         2.6094E-08
 
 
 Simulation ended normal
 Execution stop : 2012/04/13 10:39:11 
