* Deltares, D-Flow FM Version 1.1.93.000000, Apr 03 2014, 19:54:47
* File creation date: 15:32:48, 05-05-2014                                      
** INFO   :  MAXIMUM NUMBER OF LINKS         :            2
** INFO   :  MAXIMUM NUMBER OF NODES         :            0
** INFO   :  RESOLUTION GRAPHICS SCREEN      :         1600        1054
** INFO   :  RESOLUTION TEXT     SCREEN      :          200          70
** INFO   :  NUMBER OF COLOURS AVAILABLE     :          256
** INFO   :              0        100002 NOD(KMAX)
** INFO   :              6        700014 XK (KMAX), YK (KMAX), ZK (KMAX), KC (KMAX), NMK (KMAX), RNOD(KMAX)
** INFO   :              6         10000 XS(NSMAX),YS(NSMAX),ZS(NSMAX),IPSAM(NSMAX)
** INFO   :              6         50000 xlan(maxlan)
** INFO   :              7         50000 ylan(maxlan)
** INFO   :              7         50000 zlan(maxlan)
** INFO   :              7         25000 nclan(maxlan)
