***********************************************************************************************************************************
*** Print of Delft3D-FLOW for Run f34 - Simulation date: 2014-07-16  16:24:56  page     1                                       ***
*** Deltares, FLOW2D3D Version 6.01.07.3574, Apr  2 2014, 11:35:11                                                              ***
*** User: Unknown                                                                                                               ***
***********************************************************************************************************************************
                                                                                                                                   
 Selected Water-levels at NST=   150 ( =  750.00 Elapsed min. ,Date : 1990-08-05 time : 12:30:00 )                                 
     M    N       Water-level   at station                                                                                         
                                                                                                                                   
                                                                                                                                   
     4   17            1.4907   W1                  
     9   17            1.4073   W2                  
    12   17            1.3497   W3                  
     9   11            1.0538   W4                  
     9    7            0.9689   W5                  
                                                                                                                                   
 Selected Currents                  at NST=   150 ( =  750.00 Elapsed min. ,Date : 1990-08-05 time : 12:30:00 )                    
     M    N    K  Current in Zeta point                             at station                                                     
                    Magnitude   Direction       U-KSI       V-ETA                                                                  
                                                                                                                                   
     4   17    1       0.1235       238.9     -0.1235     -0.0003   W1                  
     9   17    1       0.4584       256.7     -0.0791     -0.4515   W2                  
    12   17    1       0.4332       219.5     -0.0561     -0.4295   W3                  
     9   11    1       0.9332       271.1     -0.1525     -0.9207   W4                  
     9    7    1       0.1310       280.8     -0.0209     -0.1293   W5                  
     4   17    2       0.1125       238.7     -0.1125      0.0000   W1                  
     9   17    2       0.4266       257.2     -0.0703     -0.4208   W2                  
    12   17    2       0.4022       219.7     -0.0507     -0.3990   W3                  
     9   11    2       0.8673       271.2     -0.1400     -0.8559   W4                  
     9    7    2       0.1210       281.0     -0.0189     -0.1195   W5                  
     4   17    3       0.1005       238.8     -0.1005     -0.0002   W1                  
     9   17    3       0.3882       257.6     -0.0610     -0.3834   W2                  
    12   17    3       0.3648       219.9     -0.0446     -0.3621   W3                  
     9   11    3       0.7874       271.3     -0.1259     -0.7772   W4                  
     9    7    3       0.1096       281.1     -0.0169     -0.1083   W5                  
     4   17    4       0.0853       239.0     -0.0853     -0.0004   W1                  
     9   17    4       0.3361       258.0     -0.0504     -0.3323   W2                  
    12   17    4       0.3139       220.1     -0.0372     -0.3117   W3                  
     9   11    4       0.6787       271.3     -0.1078     -0.6701   W4                  
     9    7    4       0.0946       281.0     -0.0148     -0.0934   W5                  
     4   17    5       0.0624       239.3     -0.0624     -0.0006   W1                  
     9   17    5       0.2528       258.4     -0.0361     -0.2503   W2                  
    12   17    5       0.2327       220.3     -0.0266     -0.2312   W3                  
     9   11    5       0.5050       271.3     -0.0806     -0.4986   W4                  
     9    7    5       0.0712       280.2     -0.0121     -0.0702   W5                  
                                                                                                                                   
 Selected W-velocities              at NST=   150 ( =  750.00 Elapsed min. ,Date : 1990-08-05 time : 12:30:00 )                    
     M    N    K   W-velocity   at station                                                                                         
                                                                                                                                   
                                                                                                                                   
     4   17    1 -1.49974E-05   W1                  
     9   17    1 -3.08147E-05   W2                  
    12   17    1 -2.90044E-05   W3                  
     9   11    1  6.44160E-05   W4                  
     9    7    1  9.30051E-05   W5                  
     4   17    2 -3.70730E-06   W1                  
     9   17    2 -1.69902E-05   W2                  
    12   17    2  2.89311E-06   W3                  
     9   11    2  9.36598E-05   W4                  
     9    7    2  6.27203E-05   W5                  
     4   17    3  3.03847E-06   W1                  

***********************************************************************************************************************************
*** Print of Delft3D-FLOW for Run f34 - Simulation date: 2014-07-16  16:24:56  pa    2  1                                       ***
*** Deltares, FLOW2D3D Version 6.01.07.3574, Apr  2 2014, 11:35:11                                                              ***
*** User: Unknown                                                                                                               ***
***********************************************************************************************************************************
                                                                                                                                   
 Selected W-velocities              at NST=   150 ( =  750.00 Elapsed min. ,Date : 1990-08-05 time : 12:30:00 )                    
     M    N    K   W-velocity   at station                                                                                         
                                                                                                                                   
                                                                                                                                   

     9   17    3 -8.17904E-06   W2                  
    12   17    3  2.05271E-05   W3                  
     9   11    3  1.06698E-04   W4                  
     9    7    3  4.52077E-05   W5                  
     4   17    4  6.16091E-06   W1                  
     9   17    4 -3.07813E-06   W2                  
    12   17    4  2.70122E-05   W3                  
     9   11    4  1.04218E-04   W4                  
     9    7    4  3.43573E-05   W5                  
     4   17    5  6.00846E-06   W1                  
     9   17    5 -6.84969E-07   W2                  
    12   17    5  2.34770E-05   W3                  
     9   11    5  8.28201E-05   W4                  
     9    7    5  2.52463E-05   W5                  
                                                                                                                                   
 Selected Concentrations            at NST=   150 ( =  750.00 Elapsed min. ,Date : 1990-08-05 time : 12:30:00 )                    
     M    N    K  Concentrations for L=1,LSTSCI                                                                                    
                  at station                      1            2                                                                   
                                                                                                                                   
     4   17    1  W1                    3.10000E+01  1.50000E+01
     9   17    1  W2                    3.10000E+01  1.50000E+01
    12   17    1  W3                    3.10000E+01  1.50000E+01
     9   11    1  W4                    3.10000E+01  1.50000E+01
     9    7    1  W5                    3.10000E+01  1.50000E+01
     4   17    2  W1                    3.10000E+01  1.50000E+01
     9   17    2  W2                    3.10000E+01  1.50000E+01
    12   17    2  W3                    3.10000E+01  1.50000E+01
     9   11    2  W4                    3.10000E+01  1.50000E+01
     9    7    2  W5                    3.10000E+01  1.50000E+01
     4   17    3  W1                    3.10000E+01  1.50000E+01
     9   17    3  W2                    3.10000E+01  1.50000E+01
    12   17    3  W3                    3.10000E+01  1.50000E+01
     9   11    3  W4                    3.10000E+01  1.50000E+01
     9    7    3  W5                    3.10000E+01  1.50000E+01
     4   17    4  W1                    3.10000E+01  1.50000E+01
     9   17    4  W2                    3.10000E+01  1.50000E+01
    12   17    4  W3                    3.10000E+01  1.50000E+01
     9   11    4  W4                    3.10000E+01  1.50000E+01
     9    7    4  W5                    3.10000E+01  1.50000E+01
     4   17    5  W1                    3.10000E+01  1.50000E+01
     9   17    5  W2                    3.10000E+01  1.50000E+01
    12   17    5  W3                    3.10000E+01  1.50000E+01
     9   11    5  W4                    3.10000E+01  1.50000E+01
     9    7    5  W5                    3.10000E+01  1.50000E+01
                                                                                                                                   
 Selected Vert.Eddy Visc/Diff &Rich at NST=   150 ( =  750.00 Elapsed min. ,Date : 1990-08-05 time : 12:30:00 )                    
     M    N    K   Vert. Eddy   Vert. Eddy   Richardson   at station                                                               
                    Viscosity  Diffusivity       Number                                                                            
                                                                                                                                   
     4   17    0  1.10544E-03  1.10544E-03  0.00000E+00   W1                  
     9   17    0  1.40715E-03  1.40715E-03  0.00000E+00   W2                  
    12   17    0  1.06106E-03  1.06106E-03  0.00000E+00   W3                  
     9   11    0  1.31109E-03  1.31109E-03  0.00000E+00   W4                  
     9    7    0  1.02770E-03  1.02770E-03  0.00000E+00   W5                  
     4   17    1  3.69899E-03  3.69899E-03  0.00000E+00   W1                  
     9   17    1  1.31903E-02  1.31903E-02  0.00000E+00   W2                  
    12   17    1  9.92138E-03  9.92138E-03  0.00000E+00   W3                  

***********************************************************************************************************************************
*** Print of Delft3D-FLOW for Run f34 - Simulation date: 2014-07-16  16:24:56  pa    3  1                                       ***
*** Deltares, FLOW2D3D Version 6.01.07.3574, Apr  2 2014, 11:35:11                                                              ***
*** User: Unknown                                                                                                               ***
***********************************************************************************************************************************
                                                                                                                                   
 Selected Vert.Eddy Visc/Diff &Rich at NST=   150 ( =  750.00 Elapsed min. ,Date : 1990-08-05 time : 12:30:00 )                    
     M    N    K   Vert. Eddy   Vert. Eddy   Richardson   at station                                                               
                    Viscosity  Diffusivity       Number                                                                            
                                                                                                                                   

     9   11    1  2.47744E-02  2.47744E-02  0.00000E+00   W4                  
     9    7    1  4.44830E-03  4.44830E-03  0.00000E+00   W5                  
     4   17    2  3.06768E-03  3.06768E-03  0.00000E+00   W1                  
     9   17    2  1.20508E-02  1.20508E-02  0.00000E+00   W2                  
    12   17    2  9.05784E-03  9.05784E-03  0.00000E+00   W3                  
     9   11    2  2.27014E-02  2.27014E-02  0.00000E+00   W4                  
     9    7    2  3.98194E-03  3.98194E-03  0.00000E+00   W5                  
     4   17    3  1.64956E-03  1.64956E-03  0.00000E+00   W1                  
     9   17    3  6.93094E-03  6.93094E-03  0.00000E+00   W2                  
    12   17    3  5.19210E-03  5.19210E-03  0.00000E+00   W3                  
     9   11    3  1.30552E-02  1.30552E-02  0.00000E+00   W4                  
     9    7    3  2.26339E-03  2.26339E-03  0.00000E+00   W5                  
     4   17    4  5.80434E-04  5.80434E-04  0.00000E+00   W1                  
     9   17    4  2.57944E-03  2.57944E-03  0.00000E+00   W2                  
    12   17    4  1.92913E-03  1.92913E-03  0.00000E+00   W3                  
     9   11    4  4.84716E-03  4.84716E-03  0.00000E+00   W4                  
     9    7    4  8.36188E-04  8.36188E-04  0.00000E+00   W5                  
     4   17    5  4.47707E-06  4.47707E-06  0.00000E+00   W1                  
     9   17    5  1.65162E-05  1.65162E-05  0.00000E+00   W2                  
    12   17    5  1.64112E-05  1.64112E-05  0.00000E+00   W3                  
     9   11    5  3.30620E-05  3.30620E-05  0.00000E+00   W4                  
     9    7    5  4.92869E-06  4.92869E-06  0.00000E+00   W5                  
                                                                                                                                   
 Selected Density                   at NST=   150 ( =  750.00 Elapsed min. ,Date : 1990-08-05 time : 12:30:00 )                    
     M    N    K  Density       at station                                                                                         
                                                                                                                                   
                                                                                                                                   
     4   17    1     1022.891   W1                  
     9   17    1     1022.891   W2                  
    12   17    1     1022.891   W3                  
     9   11    1     1022.891   W4                  
     9    7    1     1022.891   W5                  
     4   17    2     1022.891   W1                  
     9   17    2     1022.891   W2                  
    12   17    2     1022.891   W3                  
     9   11    2     1022.891   W4                  
     9    7    2     1022.891   W5                  
     4   17    3     1022.891   W1                  
     9   17    3     1022.891   W2                  
    12   17    3     1022.891   W3                  
     9   11    3     1022.891   W4                  
     9    7    3     1022.891   W5                  
     4   17    4     1022.891   W1                  
     9   17    4     1022.891   W2                  
    12   17    4     1022.891   W3                  
     9   11    4     1022.891   W4                  
     9    7    4     1022.891   W5                  
     4   17    5     1022.891   W1                  
     9   17    5     1022.891   W2                  
    12   17    5     1022.891   W3                  
     9   11    5     1022.891   W4                  
     9    7    5     1022.891   W5                  

***********************************************************************************************************************************
*** Print of Delft3D-FLOW for Run f34 - Simulation date: 2014-07-16  16:24:56  pa    4  1                                       ***
*** Deltares, FLOW2D3D Version 6.01.07.3574, Apr  2 2014, 11:35:11                                                              ***
*** User: Unknown                                                                                                               ***
***********************************************************************************************************************************
                                                                                                                                   
 Transports at Cross sections       at NST=   150 ( =  750.00 Elapsed min. ,Date : 1990-08-05 time : 12:30:00 )                    
    M1   N1   M2   N2 at cross-section   current volume total volume     total advective total diffusive      total mass           
                                              transport     tranport L=  mass  transport mass  transport        tranport           
                                                                                                                                   

     7    7    7   14 (7,7)..(7,14)        -1.49493E+04  1.01116E+08   1     3.13461E+09    -9.21794E-08     3.13461E+09
                                                                       2     1.51675E+09     1.67482E-08     1.51675E+09
     8   14   14   14 Entrance             -2.54347E+04  2.04398E+08   1     6.33635E+09    -8.04385E-08     6.33635E+09
                                                                       2     3.06597E+09     2.51232E-10     3.06597E+09
     2   21   14   21 Boundary             -7.87754E+03  3.88430E+08   1     1.20413E+10    -5.64393E-07     1.20413E+10
                                                                       2     5.82645E+09    -4.24496E-08     5.82645E+09
                                                                                                                                   
                                                                                                                                   
 Selected Water-levels at NST=   180 ( =  900.00 Elapsed min. ,Date : 1990-08-05 time : 15:00:00 )                                 
     M    N       Water-level   at station                                                                                         
                                                                                                                                   
                                                                                                                                   
     4   17            0.4407   W1                  
     9   17            0.3656   W2                  
    12   17            0.3371   W3                  
     9   11            0.9119   W4                  
     9    7            1.0125   W5                  
                                                                                                                                   
 Selected Currents                  at NST=   180 ( =  900.00 Elapsed min. ,Date : 1990-08-05 time : 15:00:00 )                    
     M    N    K  Current in Zeta point                             at station                                                     
                    Magnitude   Direction       U-KSI       V-ETA                                                                  
                                                                                                                                   
     4   17    1       0.3196        74.7      0.3072      0.0882   W1                  
     9   17    1       0.8098        73.9      0.1790      0.7898   W2                  
    12   17    1       0.7836        39.5      0.1017      0.7770   W3                  
     9   11    1       0.6262        90.3      0.1102      0.6164   W4                  
     9    7    1       0.0517        77.6      0.0277      0.0437   W5                  
     4   17    2       0.2983        75.0      0.2863      0.0839   W1                  
     9   17    2       0.7545        73.9      0.1663      0.7359   W2                  
    12   17    2       0.7274        39.5      0.0935      0.7214   W3                  
     9   11    2       0.5865        90.5      0.1021      0.5776   W4                  
     9    7    2       0.0504        79.3      0.0257      0.0433   W5                  
     4   17    3       0.2705        75.3      0.2592      0.0774   W1                  
     9   17    3       0.6861        73.9      0.1509      0.6693   W2                  
    12   17    3       0.6584        39.6      0.0840      0.6530   W3                  
     9   11    3       0.5359        90.5      0.0925      0.5278   W4                  
     9    7    3       0.0469        81.3      0.0225      0.0411   W5                  
     4   17    4       0.2316        75.6      0.2216      0.0675   W1                  
     9   17    4       0.5917        74.0      0.1298      0.5773   W2                  
    12   17    4       0.5637        39.6      0.0714      0.5591   W3                  
     9   11    4       0.4643        90.6      0.0797      0.4574   W4                  
     9    7    4       0.0411        83.3      0.0184      0.0367   W5                  
     4   17    5       0.1691        76.1      0.1614      0.0505   W1                  
     9   17    5       0.4394        74.0      0.0961      0.4287   W2                  
    12   17    5       0.4114        39.7      0.0515      0.4081   W3                  
     9   11    5       0.3465        90.5      0.0598      0.3413   W4                  
     9    7    5       0.0314        84.9      0.0133      0.0285   W5                  
                                                                                                                                   
 Selected W-velocities              at NST=   180 ( =  900.00 Elapsed min. ,Date : 1990-08-05 time : 15:00:00 )                    
     M    N    K   W-velocity   at station                                                                                         
                                                                                                                                   
                                                                                                                                   
     4   17    1 -1.60016E-04   W1                  
     9   17    1 -1.72651E-04   W2                  
    12   17    1 -1.90465E-04   W3                  
     9   11    1 -1.18861E-04   W4                  
     9    7    1 -7.83622E-05   W5                  

***********************************************************************************************************************************
*** Print of Delft3D-FLOW for Run f34 - Simulation date: 2014-07-16  16:24:56  pa    5  1                                       ***
*** Deltares, FLOW2D3D Version 6.01.07.3574, Apr  2 2014, 11:35:11                                                              ***
*** User: Unknown                                                                                                               ***
***********************************************************************************************************************************
                                                                                                                                   
 Selected W-velocities              at NST=   180 ( =  900.00 Elapsed min. ,Date : 1990-08-05 time : 15:00:00 )                    
     M    N    K   W-velocity   at station                                                                                         
                                                                                                                                   
                                                                                                                                   

     4   17    2 -9.66171E-05   W1                  
     9   17    2 -9.28206E-05   W2                  
    12   17    2 -1.28653E-04   W3                  
     9   11    2 -1.04154E-04   W4                  
     9    7    2 -4.79519E-05   W5                  
     4   17    3 -5.62908E-05   W1                  
     9   17    3 -4.31381E-05   W2                  
    12   17    3 -8.72498E-05   W3                  
     9   11    3 -9.08562E-05   W4                  
     9    7    3 -2.71701E-05   W5                  
     4   17    4 -3.18313E-05   W1                  
     9   17    4 -1.53866E-05   W2                  
    12   17    4 -5.91943E-05   W3                  
     9   11    4 -7.66029E-05   W4                  
     9    7    4 -1.44814E-05   W5                  
     4   17    5 -1.70869E-05   W1                  
     9   17    5 -3.13406E-06   W2                  
    12   17    5 -3.71712E-05   W3                  
     9   11    5 -5.66752E-05   W4                  
     9    7    5 -7.51573E-06   W5                  
                                                                                                                                   
 Selected Concentrations            at NST=   180 ( =  900.00 Elapsed min. ,Date : 1990-08-05 time : 15:00:00 )                    
     M    N    K  Concentrations for L=1,LSTSCI                                                                                    
                  at station                      1            2                                                                   
                                                                                                                                   
     4   17    1  W1                    3.10000E+01  1.50000E+01
     9   17    1  W2                    3.10000E+01  1.50000E+01
    12   17    1  W3                    3.10000E+01  1.50000E+01
     9   11    1  W4                    3.10000E+01  1.50000E+01
     9    7    1  W5                    3.10000E+01  1.50000E+01
     4   17    2  W1                    3.10000E+01  1.50000E+01
     9   17    2  W2                    3.10000E+01  1.50000E+01
    12   17    2  W3                    3.10000E+01  1.50000E+01
     9   11    2  W4                    3.10000E+01  1.50000E+01
     9    7    2  W5                    3.10000E+01  1.50000E+01
     4   17    3  W1                    3.10000E+01  1.50000E+01
     9   17    3  W2                    3.10000E+01  1.50000E+01
    12   17    3  W3                    3.10000E+01  1.50000E+01
     9   11    3  W4                    3.10000E+01  1.50000E+01
     9    7    3  W5                    3.10000E+01  1.50000E+01
     4   17    4  W1                    3.10000E+01  1.50000E+01
     9   17    4  W2                    3.10000E+01  1.50000E+01
    12   17    4  W3                    3.10000E+01  1.50000E+01
     9   11    4  W4                    3.10000E+01  1.50000E+01
     9    7    4  W5                    3.10000E+01  1.50000E+01
     4   17    5  W1                    3.10000E+01  1.50000E+01
     9   17    5  W2                    3.10000E+01  1.50000E+01
    12   17    5  W3                    3.10000E+01  1.50000E+01
     9   11    5  W4                    3.10000E+01  1.50000E+01
     9    7    5  W5                    3.10000E+01  1.50000E+01
                                                                                                                                   
 Selected Vert.Eddy Visc/Diff &Rich at NST=   180 ( =  900.00 Elapsed min. ,Date : 1990-08-05 time : 15:00:00 )                    
     M    N    K   Vert. Eddy   Vert. Eddy   Richardson   at station                                                               
                    Viscosity  Diffusivity       Number                                                                            
                                                                                                                                   
     4   17    0  8.39841E-04  8.39841E-04  0.00000E+00   W1                  
     9   17    0  1.14236E-03  1.14236E-03  0.00000E+00   W2                  

***********************************************************************************************************************************
*** Print of Delft3D-FLOW for Run f34 - Simulation date: 2014-07-16  16:24:56  pa    6  1                                       ***
*** Deltares, FLOW2D3D Version 6.01.07.3574, Apr  2 2014, 11:35:11                                                              ***
*** User: Unknown                                                                                                               ***
***********************************************************************************************************************************
                                                                                                                                   
 Selected Vert.Eddy Visc/Diff &Rich at NST=   180 ( =  900.00 Elapsed min. ,Date : 1990-08-05 time : 15:00:00 )                    
     M    N    K   Vert. Eddy   Vert. Eddy   Richardson   at station                                                               
                    Viscosity  Diffusivity       Number                                                                            
                                                                                                                                   

    12   17    0  8.02602E-04  8.02602E-04  0.00000E+00   W3                  
     9   11    0  1.28170E-03  1.28170E-03  0.00000E+00   W4                  
     9    7    0  1.04760E-03  1.04760E-03  0.00000E+00   W5                  
     4   17    1  5.79905E-03  5.79905E-03  0.00000E+00   W1                  
     9   17    1  1.85656E-02  1.85656E-02  0.00000E+00   W2                  
    12   17    1  1.33869E-02  1.33869E-02  0.00000E+00   W3                  
     9   11    1  1.58951E-02  1.58951E-02  0.00000E+00   W4                  
     9    7    1  1.98267E-03  1.98267E-03  0.00000E+00   W5                  
     4   17    2  5.26047E-03  5.26047E-03  0.00000E+00   W1                  
     9   17    2  1.70565E-02  1.70565E-02  0.00000E+00   W2                  
    12   17    2  1.23004E-02  1.23004E-02  0.00000E+00   W3                  
     9   11    2  1.45741E-02  1.45741E-02  0.00000E+00   W4                  
     9    7    2  1.40889E-03  1.40889E-03  0.00000E+00   W5                  
     4   17    3  3.05229E-03  3.05229E-03  0.00000E+00   W1                  
     9   17    3  9.82730E-03  9.82730E-03  0.00000E+00   W2                  
    12   17    3  7.08737E-03  7.08737E-03  0.00000E+00   W3                  
     9   11    3  8.39178E-03  8.39178E-03  0.00000E+00   W4                  
     9    7    3  7.32266E-04  7.32266E-04  0.00000E+00   W5                  
     4   17    4  1.15000E-03  1.15000E-03  0.00000E+00   W1                  
     9   17    4  3.65991E-03  3.65991E-03  0.00000E+00   W2                  
    12   17    4  2.63954E-03  2.63954E-03  0.00000E+00   W3                  
     9   11    4  3.12451E-03  3.12451E-03  0.00000E+00   W4                  
     9    7    4  2.89527E-04  2.89527E-04  0.00000E+00   W5                  
     4   17    5  1.20444E-05  1.20444E-05  0.00000E+00   W1                  
     9   17    5  2.89077E-05  2.89077E-05  0.00000E+00   W2                  
    12   17    5  2.98381E-05  2.98381E-05  0.00000E+00   W3                  
     9   11    5  2.20539E-05  2.20539E-05  0.00000E+00   W4                  
     9    7    5  2.15369E-06  2.15369E-06  0.00000E+00   W5                  
                                                                                                                                   
 Selected Density                   at NST=   180 ( =  900.00 Elapsed min. ,Date : 1990-08-05 time : 15:00:00 )                    
     M    N    K  Density       at station                                                                                         
                                                                                                                                   
                                                                                                                                   
     4   17    1     1022.891   W1                  
     9   17    1     1022.891   W2                  
    12   17    1     1022.891   W3                  
     9   11    1     1022.891   W4                  
     9    7    1     1022.891   W5                  
     4   17    2     1022.891   W1                  
     9   17    2     1022.891   W2                  
    12   17    2     1022.891   W3                  
     9   11    2     1022.891   W4                  
     9    7    2     1022.891   W5                  
     4   17    3     1022.891   W1                  
     9   17    3     1022.891   W2                  
    12   17    3     1022.891   W3                  
     9   11    3     1022.891   W4                  
     9    7    3     1022.891   W5                  
     4   17    4     1022.891   W1                  
     9   17    4     1022.891   W2                  
    12   17    4     1022.891   W3                  
     9   11    4     1022.891   W4                  
     9    7    4     1022.891   W5                  
     4   17    5     1022.891   W1                  
     9   17    5     1022.891   W2                  
    12   17    5     1022.891   W3                  
     9   11    5     1022.891   W4                  

***********************************************************************************************************************************
*** Print of Delft3D-FLOW for Run f34 - Simulation date: 2014-07-16  16:24:56  pa    7  1                                       ***
*** Deltares, FLOW2D3D Version 6.01.07.3574, Apr  2 2014, 11:35:11                                                              ***
*** User: Unknown                                                                                                               ***
***********************************************************************************************************************************
                                                                                                                                   
 Selected Density                   at NST=   180 ( =  900.00 Elapsed min. ,Date : 1990-08-05 time : 15:00:00 )                    
     M    N    K  Density       at station                                                                                         
                                                                                                                                   
                                                                                                                                   

     9    7    5     1022.891   W5                  
                                                                                                                                   
 Transports at Cross sections       at NST=   180 ( =  900.00 Elapsed min. ,Date : 1990-08-05 time : 15:00:00 )                    
    M1   N1   M2   N2 at cross-section   current volume total volume     total advective total diffusive      total mass           
                                              transport     tranport L=  mass  transport mass  transport        tranport           
                                                                                                                                   
     7    7    7   14 (7,7)..(7,14)         1.09726E+04  9.77079E+07   1     3.02895E+09    -4.68002E-08     3.02895E+09
                                                                       2     1.46562E+09     3.28667E-08     1.46562E+09
     8   14   14   14 Entrance              2.23563E+04  2.12424E+08   1     6.58515E+09    -8.60247E-08     6.58515E+09
                                                                       2     3.18636E+09     3.61689E-09     3.18636E+09
     2   21   14   21 Boundary              9.56382E+04  8.53392E+08   1     2.64552E+10    -8.03205E-07     2.64552E+10
                                                                       2     1.28009E+10    -1.39586E-07     1.28009E+10
                                                                                                                                   
                                                                                                                                   
 Selected Water-levels at NST=   210 ( = 1050.00 Elapsed min. ,Date : 1990-08-05 time : 17:30:00 )                                 
     M    N       Water-level   at station                                                                                         
                                                                                                                                   
                                                                                                                                   
     4   17           -1.0600   W1                  
     9   17           -0.9645   W2                  
    12   17           -0.8812   W3                  
     9   11            0.0127   W4                  
     9    7            0.1561   W5                  
                                                                                                                                   
 Selected Currents                  at NST=   210 ( = 1050.00 Elapsed min. ,Date : 1990-08-05 time : 17:30:00 )                    
     M    N    K  Current in Zeta point                             at station                                                     
                    Magnitude   Direction       U-KSI       V-ETA                                                                  
                                                                                                                                   
     4   17    1       0.3228       128.8      0.1099      0.3035   W1                  
     9   17    1       0.9538        90.3     -0.0610      0.9519   W2                  
    12   17    1       0.6922        53.4     -0.0782      0.6878   W3                  
     9   11    1       0.7893        93.9      0.0900      0.7842   W4                  
     9    7    1       0.0847       105.1      0.0071      0.0844   W5                  
     4   17    2       0.2987       128.8      0.1019      0.2807   W1                  
     9   17    2       0.8838        90.3     -0.0567      0.8819   W2                  
    12   17    2       0.6393        53.4     -0.0727      0.6352   W3                  
     9   11    2       0.7355        94.0      0.0834      0.7307   W4                  
     9    7    2       0.0797       105.0      0.0069      0.0794   W5                  
     4   17    3       0.2684       128.8      0.0915      0.2523   W1                  
     9   17    3       0.7981        90.3     -0.0514      0.7965   W2                  
    12   17    3       0.5745        53.5     -0.0656      0.5707   W3                  
     9   11    3       0.6682        94.0      0.0755      0.6639   W4                  
     9    7    3       0.0728       104.9      0.0064      0.0725   W5                  
     4   17    4       0.2266       128.8      0.0771      0.2131   W1                  
     9   17    4       0.6812        90.4     -0.0440      0.6798   W2                  
    12   17    4       0.4854        53.5     -0.0555      0.4823   W3                  
     9   11    4       0.5749        94.0      0.0650      0.5712   W4                  
     9    7    4       0.0630       104.6      0.0059      0.0627   W5                  
     4   17    5       0.1585       128.9      0.0536      0.1492   W1                  
     9   17    5       0.4939        90.4     -0.0320      0.4929   W2                  
    12   17    5       0.3421        53.4     -0.0390      0.3399   W3                  
     9   11    5       0.4235        93.9      0.0484      0.4207   W4                  
     9    7    5       0.0470       103.7      0.0051      0.0468   W5                  

***********************************************************************************************************************************
*** Print of Delft3D-FLOW for Run f34 - Simulation date: 2014-07-16  16:24:56  pa    8  1                                       ***
*** Deltares, FLOW2D3D Version 6.01.07.3574, Apr  2 2014, 11:35:11                                                              ***
*** User: Unknown                                                                                                               ***
***********************************************************************************************************************************
                                                                                                                                   
 Selected W-velocities              at NST=   210 ( = 1050.00 Elapsed min. ,Date : 1990-08-05 time : 17:30:00 )                    
     M    N    K   W-velocity   at station                                                                                         
                                                                                                                                   
                                                                                                                                   

     4   17    1 -1.05740E-04   W1                  
     9   17    1 -1.42842E-04   W2                  
    12   17    1 -1.46869E-04   W3                  
     9   11    1 -1.24781E-04   W4                  
     9    7    1 -6.93327E-05   W5                  
     4   17    2 -7.05806E-05   W1                  
     9   17    2 -7.61800E-05   W2                  
    12   17    2 -1.07296E-04   W3                  
     9   11    2 -1.17756E-04   W4                  
     9    7    2 -4.74480E-05   W5                  
     4   17    3 -4.71587E-05   W1                  
     9   17    3 -3.50392E-05   W2                  
    12   17    3 -7.91957E-05   W3                  
     9   11    3 -1.08062E-04   W4                  
     9    7    3 -3.24327E-05   W5                  
     4   17    4 -3.12378E-05   W1                  
     9   17    4 -1.22665E-05   W2                  
    12   17    4 -5.77420E-05   W3                  
     9   11    4 -9.38240E-05   W4                  
     9    7    4 -2.24967E-05   W5                  
     4   17    5 -1.84526E-05   W1                  
     9   17    5 -2.34010E-06   W2                  
    12   17    5 -3.70481E-05   W3                  
     9   11    5 -6.98890E-05   W4                  
     9    7    5 -1.51268E-05   W5                  
                                                                                                                                   
 Selected Concentrations            at NST=   210 ( = 1050.00 Elapsed min. ,Date : 1990-08-05 time : 17:30:00 )                    
     M    N    K  Concentrations for L=1,LSTSCI                                                                                    
                  at station                      1            2                                                                   
                                                                                                                                   
     4   17    1  W1                    3.10000E+01  1.50000E+01
     9   17    1  W2                    3.10000E+01  1.50000E+01
    12   17    1  W3                    3.10000E+01  1.50000E+01
     9   11    1  W4                    3.10000E+01  1.50000E+01
     9    7    1  W5                    3.10000E+01  1.50000E+01
     4   17    2  W1                    3.10000E+01  1.50000E+01
     9   17    2  W2                    3.10000E+01  1.50000E+01
    12   17    2  W3                    3.10000E+01  1.50000E+01
     9   11    2  W4                    3.10000E+01  1.50000E+01
     9    7    2  W5                    3.10000E+01  1.50000E+01
     4   17    3  W1                    3.10000E+01  1.50000E+01
     9   17    3  W2                    3.10000E+01  1.50000E+01
    12   17    3  W3                    3.10000E+01  1.50000E+01
     9   11    3  W4                    3.10000E+01  1.50000E+01
     9    7    3  W5                    3.10000E+01  1.50000E+01
     4   17    4  W1                    3.10000E+01  1.50000E+01
     9   17    4  W2                    3.10000E+01  1.50000E+01
    12   17    4  W3                    3.10000E+01  1.50000E+01
     9   11    4  W4                    3.10000E+01  1.50000E+01
     9    7    4  W5                    3.10000E+01  1.50000E+01
     4   17    5  W1                    3.10000E+01  1.50000E+01
     9   17    5  W2                    3.10000E+01  1.50000E+01
    12   17    5  W3                    3.10000E+01  1.50000E+01
     9   11    5  W4                    3.10000E+01  1.50000E+01
     9    7    5  W5                    3.10000E+01  1.50000E+01

***********************************************************************************************************************************
*** Print of Delft3D-FLOW for Run f34 - Simulation date: 2014-07-16  16:24:56  pa    9  1                                       ***
*** Deltares, FLOW2D3D Version 6.01.07.3574, Apr  2 2014, 11:35:11                                                              ***
*** User: Unknown                                                                                                               ***
***********************************************************************************************************************************
                                                                                                                                   
 Selected Vert.Eddy Visc/Diff &Rich at NST=   210 ( = 1050.00 Elapsed min. ,Date : 1990-08-05 time : 17:30:00 )                    
     M    N    K   Vert. Eddy   Vert. Eddy   Richardson   at station                                                               
                    Viscosity  Diffusivity       Number                                                                            
                                                                                                                                   

     4   17    0  4.46648E-04  4.46648E-04  0.00000E+00   W1                  
     9   17    0  7.93629E-04  7.93629E-04  0.00000E+00   W2                  
    12   17    0  4.83020E-04  4.83020E-04  0.00000E+00   W3                  
     9   11    0  1.04736E-03  1.04736E-03  0.00000E+00   W4                  
     9    7    0  8.24427E-04  8.24427E-04  0.00000E+00   W5                  
     4   17    1  3.45553E-03  3.45553E-03  8.44877E-13   W1                  
     9   17    1  1.61076E-02  1.61076E-02  0.00000E+00   W2                  
    12   17    1  7.78156E-03  7.78156E-03  0.00000E+00   W3                  
     9   11    1  1.69850E-02  1.69850E-02  0.00000E+00   W4                  
     9    7    1  2.03300E-03  2.03300E-03  0.00000E+00   W5                  
     4   17    2  3.17126E-03  3.17126E-03  0.00000E+00   W1                  
     9   17    2  1.48130E-02  1.48130E-02  0.00000E+00   W2                  
    12   17    2  7.14870E-03  7.14870E-03  0.00000E+00   W3                  
     9   11    2  1.56042E-02  1.56042E-02  0.00000E+00   W4                  
     9    7    2  1.99001E-03  1.99001E-03  0.00000E+00   W5                  
     4   17    3  1.83051E-03  1.83051E-03  0.00000E+00   W1                  
     9   17    3  8.53733E-03  8.53733E-03  0.00000E+00   W2                  
    12   17    3  4.11875E-03  4.11875E-03  0.00000E+00   W3                  
     9   11    3  8.99051E-03  8.99051E-03  0.00000E+00   W4                  
     9    7    3  1.16919E-03  1.16919E-03  0.00000E+00   W5                  
     4   17    4  6.75907E-04  6.75907E-04  0.00000E+00   W1                  
     9   17    4  3.17988E-03  3.17988E-03  0.00000E+00   W2                  
    12   17    4  1.53390E-03  1.53390E-03  0.00000E+00   W3                  
     9   11    4  3.34826E-03  3.34826E-03  1.35572E-14   W4                  
     9    7    4  4.38488E-04  4.38488E-04  0.00000E+00   W5                  
     4   17    5  1.37258E-05  1.37258E-05  0.00000E+00   W1                  
     9   17    5  3.60420E-05  3.60420E-05  0.00000E+00   W2                  
    12   17    5  2.89905E-05  2.89905E-05  0.00000E+00   W3                  
     9   11    5  2.88047E-05  2.88047E-05  0.00000E+00   W4                  
     9    7    5  3.39181E-06  3.39181E-06  0.00000E+00   W5                  
                                                                                                                                   
 Selected Density                   at NST=   210 ( = 1050.00 Elapsed min. ,Date : 1990-08-05 time : 17:30:00 )                    
     M    N    K  Density       at station                                                                                         
                                                                                                                                   
                                                                                                                                   
     4   17    1     1022.891   W1                  
     9   17    1     1022.891   W2                  
    12   17    1     1022.891   W3                  
     9   11    1     1022.891   W4                  
     9    7    1     1022.891   W5                  
     4   17    2     1022.891   W1                  
     9   17    2     1022.891   W2                  
    12   17    2     1022.891   W3                  
     9   11    2     1022.891   W4                  
     9    7    2     1022.891   W5                  
     4   17    3     1022.891   W1                  
     9   17    3     1022.891   W2                  
    12   17    3     1022.891   W3                  
     9   11    3     1022.891   W4                  
     9    7    3     1022.891   W5                  
     4   17    4     1022.891   W1                  
     9   17    4     1022.891   W2                  
    12   17    4     1022.891   W3                  
     9   11    4     1022.891   W4                  
     9    7    4     1022.891   W5                  
     4   17    5     1022.891   W1                  

***********************************************************************************************************************************
*** Print of Delft3D-FLOW for Run f34 - Simulation date: 2014-07-16  16:24:56  pa   10  1                                       ***
*** Deltares, FLOW2D3D Version 6.01.07.3574, Apr  2 2014, 11:35:11                                                              ***
*** User: Unknown                                                                                                               ***
***********************************************************************************************************************************
                                                                                                                                   
 Selected Density                   at NST=   210 ( = 1050.00 Elapsed min. ,Date : 1990-08-05 time : 17:30:00 )                    
     M    N    K  Density       at station                                                                                         
                                                                                                                                   
                                                                                                                                   

     9   17    5     1022.891   W2                  
    12   17    5     1022.891   W3                  
     9   11    5     1022.891   W4                  
     9    7    5     1022.891   W5                  
                                                                                                                                   
 Transports at Cross sections       at NST=   210 ( = 1050.00 Elapsed min. ,Date : 1990-08-05 time : 17:30:00 )                    
    M1   N1   M2   N2 at cross-section   current volume total volume     total advective total diffusive      total mass           
                                              transport     tranport L=  mass  transport mass  transport        tranport           
                                                                                                                                   
     7    7    7   14 (7,7)..(7,14)         8.49628E+03  1.86510E+08   1     5.78183E+09    -2.07776E-09     5.78183E+09
                                                                       2     2.79766E+09     4.68629E-08     2.79766E+09
     8   14   14   14 Entrance              1.70850E+04  3.97868E+08   1     1.23339E+10    -6.41065E-08     1.23339E+10
                                                                       2     5.96802E+09     1.43580E-09     5.96802E+09
     2   21   14   21 Boundary              5.29995E+04  1.57446E+09   1     4.88082E+10    -1.34040E-06     4.88082E+10
                                                                       2     2.36169E+10    -2.06637E-07     2.36169E+10
                                                                                                                                   
                                                                                                                                   
 Selected Water-levels at NST=   240 ( = 1200.00 Elapsed min. ,Date : 1990-08-05 time : 20:00:00 )                                 
     M    N       Water-level   at station                                                                                         
                                                                                                                                   
                                                                                                                                   
     4   17           -1.2859   W1                  
     9   17           -0.9817   W2                  
    12   17           -0.9127   W3                  
     9   11           -0.5698   W4                  
     9    7           -0.4382   W5                  
                                                                                                                                   
 Selected Currents                  at NST=   240 ( = 1200.00 Elapsed min. ,Date : 1990-08-05 time : 20:00:00 )                    
     M    N    K  Current in Zeta point                             at station                                                     
                    Magnitude   Direction       U-KSI       V-ETA                                                                  
                                                                                                                                   
     4   17    1       0.2997       270.9     -0.2538     -0.1595   W1                  
     9   17    1       0.3326       121.7     -0.1909      0.2723   W2                  
    12   17    1       0.0607       146.9     -0.0598     -0.0105   W3                  
     9   11    1       0.6940        95.7      0.0581      0.6915   W4                  
     9    7    1       0.0795        92.2      0.0243      0.0757   W5                  
     4   17    2       0.2760       271.0     -0.2334     -0.1473   W1                  
     9   17    2       0.3081       122.3     -0.1796      0.2504   W2                  
    12   17    2       0.0592       147.8     -0.0581     -0.0112   W3                  
     9   11    2       0.6451        95.7      0.0537      0.6428   W4                  
     9    7    2       0.0747        92.2      0.0228      0.0712   W5                  
     4   17    3       0.2473       271.1     -0.2089     -0.1325   W1                  
     9   17    3       0.2784       123.0     -0.1650      0.2242   W2                  
    12   17    3       0.0557       149.2     -0.0544     -0.0119   W3                  
     9   11    3       0.5842        95.7      0.0484      0.5822   W4                  
     9    7    3       0.0681        92.1      0.0209      0.0648   W5                  
     4   17    4       0.2080       271.3     -0.1753     -0.1119   W1                  
     9   17    4       0.2383       123.8     -0.1440      0.1899   W2                  
    12   17    4       0.0496       150.6     -0.0482     -0.0118   W3                  
     9   11    4       0.5001        95.7      0.0415      0.4984   W4                  
     9    7    4       0.0586        91.9      0.0182      0.0558   W5                  
     4   17    5       0.1440       271.6     -0.1210     -0.0782   W1                  
     9   17    5       0.1751       125.1     -0.1090      0.1370   W2                  
    12   17    5       0.0384       151.7     -0.0371     -0.0098   W3                  
     9   11    5       0.3642        95.6      0.0307      0.3629   W4                  
     9    7    5       0.0433        91.2      0.0139      0.0410   W5                  

***********************************************************************************************************************************
*** Print of Delft3D-FLOW for Run f34 - Simulation date: 2014-07-16  16:24:56  pa   11  1                                       ***
*** Deltares, FLOW2D3D Version 6.01.07.3574, Apr  2 2014, 11:35:11                                                              ***
*** User: Unknown                                                                                                               ***
***********************************************************************************************************************************
                                                                                                                                   
 Selected W-velocities              at NST=   240 ( = 1200.00 Elapsed min. ,Date : 1990-08-05 time : 20:00:00 )                    
     M    N    K   W-velocity   at station                                                                                         
                                                                                                                                   
                                                                                                                                   

     4   17    1  9.04645E-05   W1                  
     9   17    1  1.12765E-04   W2                  
    12   17    1  1.01441E-04   W3                  
     9   11    1 -8.30032E-05   W4                  
     9    7    1 -4.61449E-05   W5                  
     4   17    2  6.02223E-05   W1                  
     9   17    2  5.99396E-05   W2                  
    12   17    2  4.74404E-05   W3                  
     9   11    2 -8.93542E-05   W4                  
     9    7    2 -3.44744E-05   W5                  
     4   17    3  4.00290E-05   W1                  
     9   17    3  2.74352E-05   W2                  
    12   17    3  1.45768E-05   W3                  
     9   11    3 -8.85967E-05   W4                  
     9    7    3 -2.59032E-05   W5                  
     4   17    4  2.63201E-05   W1                  
     9   17    4  9.55748E-06   W2                  
    12   17    4 -2.75844E-06   W3                  
     9   11    4 -8.02270E-05   W4                  
     9    7    4 -1.96103E-05   W5                  
     4   17    5  1.52974E-05   W1                  
     9   17    5  1.93788E-06   W2                  
    12   17    5 -8.43295E-06   W3                  
     9   11    5 -6.05615E-05   W4                  
     9    7    5 -1.39047E-05   W5                  
                                                                                                                                   
 Selected Concentrations            at NST=   240 ( = 1200.00 Elapsed min. ,Date : 1990-08-05 time : 20:00:00 )                    
     M    N    K  Concentrations for L=1,LSTSCI                                                                                    
                  at station                      1            2                                                                   
                                                                                                                                   
     4   17    1  W1                    3.10000E+01  1.50000E+01
     9   17    1  W2                    3.10000E+01  1.50000E+01
    12   17    1  W3                    3.10000E+01  1.50000E+01
     9   11    1  W4                    3.10000E+01  1.50000E+01
     9    7    1  W5                    3.10000E+01  1.50000E+01
     4   17    2  W1                    3.10000E+01  1.50000E+01
     9   17    2  W2                    3.10000E+01  1.50000E+01
    12   17    2  W3                    3.10000E+01  1.50000E+01
     9   11    2  W4                    3.10000E+01  1.50000E+01
     9    7    2  W5                    3.10000E+01  1.50000E+01
     4   17    3  W1                    3.10000E+01  1.50000E+01
     9   17    3  W2                    3.10000E+01  1.50000E+01
    12   17    3  W3                    3.10000E+01  1.50000E+01
     9   11    3  W4                    3.10000E+01  1.50000E+01
     9    7    3  W5                    3.10000E+01  1.50000E+01
     4   17    4  W1                    3.10000E+01  1.50000E+01
     9   17    4  W2                    3.10000E+01  1.50000E+01
    12   17    4  W3                    3.10000E+01  1.50000E+01
     9   11    4  W4                    3.10000E+01  1.50000E+01
     9    7    4  W5                    3.10000E+01  1.50000E+01
     4   17    5  W1                    3.10000E+01  1.50000E+01
     9   17    5  W2                    3.10000E+01  1.50000E+01
    12   17    5  W3                    3.10000E+01  1.50000E+01
     9   11    5  W4                    3.10000E+01  1.50000E+01
     9    7    5  W5                    3.10000E+01  1.50000E+01

***********************************************************************************************************************************
*** Print of Delft3D-FLOW for Run f34 - Simulation date: 2014-07-16  16:24:56  pa   12  1                                       ***
*** Deltares, FLOW2D3D Version 6.01.07.3574, Apr  2 2014, 11:35:11                                                              ***
*** User: Unknown                                                                                                               ***
***********************************************************************************************************************************
                                                                                                                                   
 Selected Vert.Eddy Visc/Diff &Rich at NST=   240 ( = 1200.00 Elapsed min. ,Date : 1990-08-05 time : 20:00:00 )                    
     M    N    K   Vert. Eddy   Vert. Eddy   Richardson   at station                                                               
                    Viscosity  Diffusivity       Number                                                                            
                                                                                                                                   

     4   17    0  3.78917E-04  3.78917E-04  0.00000E+00   W1                  
     9   17    0  7.80095E-04  7.80095E-04  0.00000E+00   W2                  
    12   17    0  4.66017E-04  4.66017E-04  0.00000E+00   W3                  
     9   11    0  8.94605E-04  8.94605E-04  0.00000E+00   W4                  
     9    7    0  6.68943E-04  6.68943E-04  0.00000E+00   W5                  
     4   17    1  2.81287E-03  2.81287E-03  0.00000E+00   W1                  
     9   17    1  5.97053E-03  5.97053E-03  0.00000E+00   W2                  
    12   17    1  1.04543E-03  1.04543E-03  0.00000E+00   W3                  
     9   11    1  1.30964E-02  1.30964E-02  0.00000E+00   W4                  
     9    7    1  1.60196E-03  1.60196E-03  0.00000E+00   W5                  
     4   17    2  2.56444E-03  2.56444E-03  0.00000E+00   W1                  
     9   17    2  5.46081E-03  5.46081E-03  0.00000E+00   W2                  
    12   17    2  9.89752E-04  9.89752E-04  0.00000E+00   W3                  
     9   11    2  1.20242E-02  1.20242E-02  0.00000E+00   W4                  
     9    7    2  1.56805E-03  1.56805E-03  0.00000E+00   W5                  
     4   17    3  1.46980E-03  1.46980E-03  0.00000E+00   W1                  
     9   17    3  3.10618E-03  3.10618E-03 -2.24512E-13   W2                  
    12   17    3  5.74561E-04  5.74561E-04 -1.39889E-12   W3                  
     9   11    3  6.92647E-03  6.92647E-03  0.00000E+00   W4                  
     9    7    3  9.19488E-04  9.19488E-04  0.00000E+00   W5                  
     4   17    4  5.41030E-04  5.41030E-04  0.00000E+00   W1                  
     9   17    4  1.14817E-03  1.14817E-03  4.84229E-14   W2                  
    12   17    4  2.15560E-04  2.15560E-04  2.86095E-13   W3                  
     9   11    4  2.58310E-03  2.58310E-03  0.00000E+00   W4                  
     9    7    4  3.44180E-04  3.44180E-04  0.00000E+00   W5                  
     4   17    5  1.27267E-05  1.27267E-05  0.00000E+00   W1                  
     9   17    5  1.33727E-05  1.33727E-05  0.00000E+00   W2                  
    12   17    5  2.90844E-06  2.90844E-06  0.00000E+00   W3                  
     9   11    5  2.59388E-05  2.59388E-05  0.00000E+00   W4                  
     9    7    5  3.30912E-06  3.30912E-06  0.00000E+00   W5                  
                                                                                                                                   
 Selected Density                   at NST=   240 ( = 1200.00 Elapsed min. ,Date : 1990-08-05 time : 20:00:00 )                    
     M    N    K  Density       at station                                                                                         
                                                                                                                                   
                                                                                                                                   
     4   17    1     1022.891   W1                  
     9   17    1     1022.891   W2                  
    12   17    1     1022.891   W3                  
     9   11    1     1022.891   W4                  
     9    7    1     1022.891   W5                  
     4   17    2     1022.891   W1                  
     9   17    2     1022.891   W2                  
    12   17    2     1022.891   W3                  
     9   11    2     1022.891   W4                  
     9    7    2     1022.891   W5                  
     4   17    3     1022.891   W1                  
     9   17    3     1022.891   W2                  
    12   17    3     1022.891   W3                  
     9   11    3     1022.891   W4                  
     9    7    3     1022.891   W5                  
     4   17    4     1022.891   W1                  
     9   17    4     1022.891   W2                  
    12   17    4     1022.891   W3                  
     9   11    4     1022.891   W4                  
     9    7    4     1022.891   W5                  
     4   17    5     1022.891   W1                  

***********************************************************************************************************************************
*** Print of Delft3D-FLOW for Run f34 - Simulation date: 2014-07-16  16:24:56  pa   13  1                                       ***
*** Deltares, FLOW2D3D Version 6.01.07.3574, Apr  2 2014, 11:35:11                                                              ***
*** User: Unknown                                                                                                               ***
***********************************************************************************************************************************
                                                                                                                                   
 Selected Density                   at NST=   240 ( = 1200.00 Elapsed min. ,Date : 1990-08-05 time : 20:00:00 )                    
     M    N    K  Density       at station                                                                                         
                                                                                                                                   
                                                                                                                                   

     9   17    5     1022.891   W2                  
    12   17    5     1022.891   W3                  
     9   11    5     1022.891   W4                  
     9    7    5     1022.891   W5                  
                                                                                                                                   
 Transports at Cross sections       at NST=   240 ( = 1200.00 Elapsed min. ,Date : 1990-08-05 time : 20:00:00 )                    
    M1   N1   M2   N2 at cross-section   current volume total volume     total advective total diffusive      total mass           
                                              transport     tranport L=  mass  transport mass  transport        tranport           
                                                                                                                                   
     7    7    7   14 (7,7)..(7,14)         5.19193E+03  2.47059E+08   1     7.65883E+09     6.79341E-08     7.65883E+09
                                                                       2     3.70588E+09     4.56127E-08     3.70588E+09
     8   14   14   14 Entrance              8.97740E+03  5.16616E+08   1     1.60151E+10    -1.05734E-07     1.60151E+10
                                                                       2     7.74925E+09    -9.59652E-09     7.74925E+09
     2   21   14   21 Boundary             -4.69264E+04  1.61639E+09   1     5.01082E+10    -1.57660E-06     5.01082E+10
                                                                       2     2.42459E+10    -1.27958E-07     2.42459E+10
                                                                                                                                   
                                                                                                                                   
 Selected Water-levels at NST=   270 ( = 1350.00 Elapsed min. ,Date : 1990-08-05 time : 22:30:00 )                                 
     M    N       Water-level   at station                                                                                         
                                                                                                                                   
                                                                                                                                   
     4   17            0.5633   W1                  
     9   17            0.6607   W2                  
    12   17            0.7089   W3                  
     9   11           -0.0500   W4                  
     9    7           -0.2633   W5                  
                                                                                                                                   
 Selected Currents                  at NST=   270 ( = 1350.00 Elapsed min. ,Date : 1990-08-05 time : 22:30:00 )                    
     M    N    K  Current in Zeta point                             at station                                                     
                    Magnitude   Direction       U-KSI       V-ETA                                                                  
                                                                                                                                   
     4   17    1       0.3503       249.4     -0.3442     -0.0650   W1                  
     9   17    1       0.7853       243.7     -0.3058     -0.7233   W2                  
    12   17    1       0.7942       211.0     -0.2177     -0.7638   W3                  
     9   11    1       0.9561       273.0     -0.1252     -0.9478   W4                  
     9    7    1       0.1073       306.6      0.0307     -0.1028   W5                  
     4   17    2       0.3244       249.4     -0.3188     -0.0603   W1                  
     9   17    2       0.7310       243.9     -0.2827     -0.6741   W2                  
    12   17    2       0.7375       211.1     -0.2013     -0.7095   W3                  
     9   11    2       0.8877       273.0     -0.1153     -0.8802   W4                  
     9    7    2       0.0993       306.7      0.0287     -0.0951   W5                  
     4   17    3       0.2933       249.5     -0.2881     -0.0548   W1                  
     9   17    3       0.6646       244.0     -0.2554     -0.6135   W2                  
    12   17    3       0.6684       211.1     -0.1815     -0.6433   W3                  
     9   11    3       0.8044       273.1     -0.1039     -0.7976   W4                  
     9    7    3       0.0900       306.6      0.0257     -0.0863   W5                  
     4   17    4       0.2509       249.6     -0.2464     -0.0473   W1                  
     9   17    4       0.5735       244.2     -0.2193     -0.5300   W2                  
    12   17    4       0.5739       211.2     -0.1550     -0.5526   W3                  
     9   11    4       0.6903       273.1     -0.0891     -0.6846   W4                  
     9    7    4       0.0774       306.1      0.0215     -0.0744   W5                  
     4   17    5       0.1823       249.7     -0.1790     -0.0349   W1                  
     9   17    5       0.4270       244.2     -0.1631     -0.3947   W2                  
    12   17    5       0.4226       211.4     -0.1132     -0.4072   W3                  
     9   11    5       0.5072       273.0     -0.0664     -0.5029   W4                  
     9    7    5       0.0575       304.8      0.0147     -0.0555   W5                  

***********************************************************************************************************************************
*** Print of Delft3D-FLOW for Run f34 - Simulation date: 2014-07-16  16:24:56  pa   14  1                                       ***
*** Deltares, FLOW2D3D Version 6.01.07.3574, Apr  2 2014, 11:35:11                                                              ***
*** User: Unknown                                                                                                               ***
***********************************************************************************************************************************
                                                                                                                                   
 Selected W-velocities              at NST=   270 ( = 1350.00 Elapsed min. ,Date : 1990-08-05 time : 22:30:00 )                    
     M    N    K   W-velocity   at station                                                                                         
                                                                                                                                   
                                                                                                                                   

     4   17    1  1.57343E-04   W1                  
     9   17    1  1.23660E-04   W2                  
    12   17    1  1.13073E-04   W3                  
     9   11    1  8.48342E-05   W4                  
     9    7    1  8.62883E-05   W5                  
     4   17    2  9.53806E-05   W1                  
     9   17    2  6.57755E-05   W2                  
    12   17    2  8.49615E-05   W3                  
     9   11    2  1.06366E-04   W4                  
     9    7    2  5.61876E-05   W5                  
     4   17    3  5.57813E-05   W1                  
     9   17    3  3.03254E-05   W2                  
    12   17    3  6.45979E-05   W3                  
     9   11    3  1.14083E-04   W4                  
     9    7    3  3.75478E-05   W5                  
     4   17    4  3.16866E-05   W1                  
     9   17    4  1.08119E-05   W2                  
    12   17    4  4.86547E-05   W3                  
     9   11    4  1.07999E-04   W4                  
     9    7    4  2.58197E-05   W5                  
     4   17    5  1.69727E-05   W1                  
     9   17    5  2.33452E-06   W2                  
    12   17    5  3.28206E-05   W3                  
     9   11    5  8.38588E-05   W4                  
     9    7    5  1.71784E-05   W5                  
                                                                                                                                   
 Selected Concentrations            at NST=   270 ( = 1350.00 Elapsed min. ,Date : 1990-08-05 time : 22:30:00 )                    
     M    N    K  Concentrations for L=1,LSTSCI                                                                                    
                  at station                      1            2                                                                   
                                                                                                                                   
     4   17    1  W1                    3.10000E+01  1.50000E+01
     9   17    1  W2                    3.10000E+01  1.50000E+01
    12   17    1  W3                    3.10000E+01  1.50000E+01
     9   11    1  W4                    3.10000E+01  1.50000E+01
[...]
*** Print of Delft3D-FLOW for Run f34 - Simulation date: 2015-05-08  15:56:31  page     1                                       ***
*** Deltares, FLOW2D3D Version 6.01.15.5066, May  8 2015, 15:56:22                                                              ***
*** User: Unknown                                                                                                               ***
***********************************************************************************************************************************

***********************************************************************************************************************************
*** Print of Delft3D-FLOW for Run f34 - Simulation date: 2015-05-08  15:57:55  page     1                                       ***
*** Deltares, FLOW2D3D Version 6.01.15.5066, May  8 2015, 15:56:22                                                              ***
*** User: Unknown                                                                                                               ***
***********************************************************************************************************************************

***********************************************************************************************************************************
*** Print of Delft3D-FLOW for Run f34 - Simulation date: 2015-05-08  16:42:47  page     1                                       ***
*** Deltares, FLOW2D3D Version 6.01.15.5066, May  8 2015, 16:40:23                                                              ***
*** User: Unknown                                                                                                               ***
***********************************************************************************************************************************

***********************************************************************************************************************************
*** Print of Delft3D-FLOW for Run f34 - Simulation date: 2015-05-08  16:45:03  page     1                                       ***
*** Deltares, FLOW2D3D Version 6.01.15.5066, May  8 2015, 16:44:34                                                              ***
*** User: Unknown                                                                                                               ***
***********************************************************************************************************************************

***********************************************************************************************************************************
*** Print of Delft3D-FLOW for Run f34 - Simulation date: 2015-05-08  21:14:29  page     1                                       ***
*** Deltares, FLOW2D3D Version 6.01.15.5066, May  8 2015, 21:14:07                                                              ***
*** User: Unknown                                                                                                               ***
***********************************************************************************************************************************

***********************************************************************************************************************************
*** Print of Delft3D-FLOW for Run f34 - Simulation date: 2015-05-08  21:18:44  page     1                                       ***
*** Deltares, FLOW2D3D Version 6.01.15.5066, May  8 2015, 21:18:36                                                              ***
*** User: Unknown                                                                                                               ***
***********************************************************************************************************************************

***********************************************************************************************************************************
*** Print of Delft3D-FLOW for Run f34 - Simulation date: 2015-05-11  10:50:44  page     1                                       ***
*** Deltares, FLOW2D3D Version 6.01.15.5066, May  8 2015, 21:18:36                                                              ***
*** User: Unknown                                                                                                               ***
***********************************************************************************************************************************

***********************************************************************************************************************************
*** Print of Delft3D-FLOW for Run f34 - Simulation date: 2015-05-11  11:20:02  page     1                                       ***
*** Deltares, FLOW2D3D Version 6.01.15.5066, May 11 2015, 11:19:38                                                              ***
*** User: Unknown                                                                                                               ***
***********************************************************************************************************************************

***********************************************************************************************************************************
*** Print of Delft3D-FLOW for Run f34 - Simulation date: 2015-05-11  11:21:16  page     1                                       ***
*** Deltares, FLOW2D3D Version 6.01.15.5066, May 11 2015, 11:19:38                                                              ***
*** User: Unknown                                                                                                               ***
***********************************************************************************************************************************

***********************************************************************************************************************************
*** Print of Delft3D-FLOW for Run f34 - Simulation date: 2015-05-11  11:23:06  page     1                                       ***
*** Deltares, FLOW2D3D Version 6.01.15.5066, May 11 2015, 11:22:58                                                              ***
*** User: Unknown                                                                                                               ***
***********************************************************************************************************************************

***********************************************************************************************************************************
*** Print of Delft3D-FLOW for Run f34 - Simulation date: 2015-05-11  12:02:35  page     1                                       ***
*** Deltares, FLOW2D3D Version 6.01.15.5066, May 11 2015, 12:02:20                                                              ***
*** User: Unknown                                                                                                               ***
***********************************************************************************************************************************

***********************************************************************************************************************************
*** Print of Delft3D-FLOW for Run f34 - Simulation date: 2015-05-11  12:04:14  page     1                                       ***
*** Deltares, FLOW2D3D Version 6.01.15.5066, May 11 2015, 12:04:02                                                              ***
*** User: Unknown                                                                                                               ***
***********************************************************************************************************************************

***********************************************************************************************************************************
*** Print of Delft3D-FLOW for Run f34 - Simulation date: 2015-05-11  12:11:17  page     1                                       ***
*** Deltares, FLOW2D3D Version 6.01.15.5066, May 11 2015, 12:04:02                                                              ***
*** User: Unknown                                                                                                               ***
***********************************************************************************************************************************

***********************************************************************************************************************************
*** Print of Delft3D-FLOW for Run f34 - Simulation date: 2015-05-11  12:13:20  page     1                                       ***
*** Deltares, FLOW2D3D Version 6.01.15.5066, May 11 2015, 12:04:02                                                              ***
*** User: Unknown                                                                                                               ***
***********************************************************************************************************************************

***********************************************************************************************************************************
*** Print of Delft3D-FLOW for Run f34 - Simulation date: 2015-05-11  12:14:52  page     1                                       ***
*** Deltares, FLOW2D3D Version 6.01.15.5066, May 11 2015, 12:04:02                                                              ***
*** User: Unknown                                                                                                               ***
***********************************************************************************************************************************

***********************************************************************************************************************************
*** Print of Delft3D-FLOW for Run f34 - Simulation date: 2015-05-11  12:15:12  page     1                                       ***
*** Deltares, FLOW2D3D Version 6.01.15.5066, May 11 2015, 12:15:04                                                              ***
*** User: Unknown                                                                                                               ***
***********************************************************************************************************************************

***********************************************************************************************************************************
*** Print of Delft3D-FLOW for Run f34 - Simulation date: 2015-05-11  13:12:55  page     1                                       ***
*** Deltares, FLOW2D3D Version 6.01.15.5066, May 11 2015, 13:07:55                                                              ***
*** User: Unknown                                                                                                               ***
***********************************************************************************************************************************

***********************************************************************************************************************************
*** Print of Delft3D-FLOW for Run f34 - Simulation date: 2015-05-11  13:16:29  page     1                                       ***
*** Deltares, FLOW2D3D Version 6.01.15.5066, May 11 2015, 13:07:55                                                              ***
*** User: Unknown                                                                                                               ***
***********************************************************************************************************************************

***********************************************************************************************************************************
*** Print of Delft3D-FLOW for Run f34 - Simulation date: 2015-05-11  13:57:23  page     1                                       ***
*** Deltares, FLOW2D3D Version 6.01.15.5066, May 11 2015, 13:56:55                                                              ***
*** User: Unknown                                                                                                               ***
***********************************************************************************************************************************

***********************************************************************************************************************************
*** Print of Delft3D-FLOW for Run f34 - Simulation date: 2015-05-11  14:03:54  page     1                                       ***
*** Deltares, FLOW2D3D Version 6.01.15.5066, May 11 2015, 13:56:55                                                              ***
*** User: Unknown                                                                                                               ***
***********************************************************************************************************************************

***********************************************************************************************************************************
*** Print of Delft3D-FLOW for Run f34 - Simulation date: 2015-05-11  14:05:11  page     1                                       ***
*** Deltares, FLOW2D3D Version 6.01.15.5066, May 11 2015, 13:56:55                                                              ***
*** User: Unknown                                                                                                               ***
***********************************************************************************************************************************

***********************************************************************************************************************************
*** Print of Delft3D-FLOW for Run f34 - Simulation date: 2015-05-11  14:30:04  page     1                                       ***
*** Deltares, FLOW2D3D Version 6.01.15.5066, May 11 2015, 14:29:56                                                              ***
*** User: Unknown                                                                                                               ***
***********************************************************************************************************************************

***********************************************************************************************************************************
*** Print of Delft3D-FLOW for Run f34 - Simulation date: 2015-05-11  14:32:03  page     1                                       ***
*** Deltares, FLOW2D3D Version 6.01.15.5066, May 11 2015, 14:29:56                                                              ***
*** User: Unknown                                                                                                               ***
***********************************************************************************************************************************

***********************************************************************************************************************************
*** Print of Delft3D-FLOW for Run f34 - Simulation date: 2015-05-11  14:35:30  page     1                                       ***
*** Deltares, FLOW2D3D Version 6.01.15.5066, May 11 2015, 14:35:21                                                              ***
*** User: Unknown                                                                                                               ***
***********************************************************************************************************************************

***********************************************************************************************************************************
*** Print of Delft3D-FLOW for Run f34 - Simulation date: 2015-05-11  14:38:17  page     1                                       ***
*** Deltares, FLOW2D3D Version 6.01.15.5066, May 11 2015, 14:38:05                                                              ***
*** User: Unknown                                                                                                               ***
***********************************************************************************************************************************

***********************************************************************************************************************************
*** Print of Delft3D-FLOW for Run f34 - Simulation date: 2015-05-11  15:24:50  page     1                                       ***
*** Deltares, FLOW2D3D Version 6.01.15.5066, May 11 2015, 14:38:05                                                              ***
*** User: Unknown                                                                                                               ***
***********************************************************************************************************************************

***********************************************************************************************************************************
*** Print of Delft3D-FLOW for Run f34 - Simulation date: 2015-05-11  15:42:12  page     1                                       ***
*** Deltares, FLOW2D3D Version 6.01.15.5066, May 11 2015, 14:38:05                                                              ***
*** User: Unknown                                                                                                               ***
***********************************************************************************************************************************

***********************************************************************************************************************************
*** Print of Delft3D-FLOW for Run f34 - Simulation date: 2015-05-11  15:58:13  page     1                                       ***
*** Deltares, FLOW2D3D Version 6.01.15.5066, May 11 2015, 15:58:06                                                              ***
*** User: Unknown                                                                                                               ***
***********************************************************************************************************************************

***********************************************************************************************************************************
*** Print of Delft3D-FLOW for Run f34 - Simulation date: 2015-05-11  15:59:29  page     1                                       ***
*** Deltares, FLOW2D3D Version 6.01.15.5066, May 11 2015, 15:59:23                                                              ***
*** User: Unknown                                                                                                               ***
***********************************************************************************************************************************

***********************************************************************************************************************************
*** Print of Delft3D-FLOW for Run f34 - Simulation date: 2015-05-11  17:00:14  page     1                                       ***
*** Deltares, FLOW2D3D Version 6.01.15.5066, May 11 2015, 17:00:08                                                              ***
*** User: Unknown                                                                                                               ***
***********************************************************************************************************************************
