Ident      = #Delft3D-FLOW 3.56.29165#
Commnt     =                  
Filcco     = #t01_net.grd#
Anglat     =  0.0000000e+000
Grdang     =  0.0000000e+000
Filgrd     = #t01_net.enc#
MNKmax     = 101 7 1
Thick      =  1.0000000e+002
Commnt     =                  
Fildep     = #test.dep#
Commnt     =                  
Commnt     =                 no. dry points: 0
Commnt     =                 no. thin dams: 0
Commnt     =                  
Itdate     = #2016-08-03#
Tunit      = #M#
Tstart     =  0.0000000e+000
Tstop      =  20
Dt         = 0.05
Tzone      = 0
Commnt     =                  
Sub1       = #   I#
Sub2       = # C #
Namc1      = #Sediment sand       #
Commnt     =                  
Wnsvwp     = #N#
Wndint     = #Y#
Commnt     =                  
Zeta0      =  0.0000000e+000
C01        =  0.0000000e+000
I0         =  0.0000000e+000
Commnt     =                  
Commnt     =                 no. open boundaries: 2
Filbnd     = #test.bnd#
FilbcT     = #test.bct#
FilbcC     = #test.bcc#
Rettis     =  0.0000000e+000
              0.0000000e+000
Rettib     =  0.0000000e+000
              0.0000000e+000
Commnt     =                  
Ag         =  9.8100000e+000
Rhow       =  1.0000000e+003
Tempw      =  1.5000000e+001
Salw       =  3.1000000e+001
Wstres     =  6.3000000e-004  0.0000000e+000  7.2300000e-003  1.0000000e+002  7.2300000e-003  1.0000000e+002
Rhoa       =  1.0000000e+000
Betac      =  5.0000000e-001
Equili     = #N#
Ktemp      = 0
Fclou      =  0.0000000e+000
Sarea      =  0.0000000e+000
Temint     = #Y#
Commnt     =                  
Roumet     = #W#
Ccofu      =  2.5000000e-002
Ccofv      =  2.5000000e-002
Xlo        =  0.0000000e+000
Vicouv     =  1.0000000e-006
Dicouv     =  1.0000000e+000
Htur2d     = #N#
Irov       = 0
Filsed     = #t01.sed#
Filmor     = #t01.mor#
Commnt     =                  
Iter       =      2
Dryflp     = #YES#
Dpsopt     = #DP#
Dpuopt     = #MOR#
Dryflc     =  1.0000000e-001
Dco        = -9.9900000e+002
Tlfsmo     =  1.0000000e+001
ThetQH     =  0.0000000e+000
Forfuv     = #Y#
Forfww     = #N#
Sigcor     = #N#
Trasol     = #Cyclic-method#
Momsol     = #Cyclic#
Commnt     =                  
Commnt     =                 no. discharges: 0
Commnt     =                 no. observation points: 5
Filsta     = #test.obs#
Commnt     =                 no. drogues: 0
Commnt     =                  
Commnt     =                  
Commnt     =                 no. cross sections: 2
Filcrs     = #test.crs#
Commnt     =                  
SMhydr     = #YYYYY#     
SMderv     = #YYYYYY#    
SMproc     = #YYYYYYYYYY#
PMhydr     = #YYYYYY#    
PMderv     = #YYY#       
PMproc     = #YYYYYYYYYY#
SHhydr     = #YYYY#      
SHderv     = #YYYYY#     
SHproc     = #YYYYYYYYYY#
SHflux     = #YYYY#      
PHhydr     = #YYYYYY#    
PHderv     = #YYY#       
PHproc     = #YYYYYYYYYY#
PHflux     = #YYYY#      
Flmap      =  0.0000000e+000 0.05  1.4400000e+003
Flhis      =  0.0000000e+000 0.05  1.4400000e+003
Flpp       =  0.0000000e+000 0  0.0000000e+000
Flrst      = 0
Commnt     =                  
Online     = #N#
Fildad= #Nourishment.dad#
Fmtdad= #FR#
Commnt     =                  
