10-30 15:02 root         INFO     Converting from Sobek3 to D-Flow FM: rectangular_storage.md1d
10-30 15:02 sobek3Reader INFO     Reading Sobek files
10-30 15:02 sobek3Reader INFO     Number of Nodes     :6
10-30 15:02 sobek3Reader INFO     Number of Branches  :3
10-30 15:02 sobek3Reader INFO     Number of Boundaries:3
10-30 15:02 converter    INFO     Converting
10-30 15:02 FMWriter     INFO     Writing FM files
10-30 15:02 UgridWriter  INFO     Writing Ugrid file
10-30 15:02 root         INFO     Finished
