* Deltares, D-Flow FM Version 1.2.76.65238M, Oct 21 2019, 20:47:04
* Source: https://svn.oss.deltares.nl/repos/delft3d/trunk/
* File creation date: 09:59:01, 31-10-2019
** INFO   : Command: "d:\06_Softwares\FM\current"\dflowfm.exe   --display:opengl=1 rectangular_storage.mdu
** INFO   : Opened file : unstruc.hlp
** INFO   : Closed file : unstruc.hlp
** INFO   : Opened file : ISOCOLOUR.hls
** INFO   : Using Local FileISOCOLOUR.hls
** INFO   : Closed file : ISOCOLOUR.hls
** INFO   : Opened file : ISOCOLOUR.hls
** INFO   : Using Local FileISOCOLOUR.hls
** INFO   : Closed file : ISOCOLOUR.hls
** INFO   :  MAXIMUM NUMBER OF LINKS         :            2
** INFO   :  MAXIMUM NUMBER OF NODES         :            0
** INFO   :  RESOLUTION GRAPHICS SCREEN      :         1600        1000
** INFO   :  RESOLUTION TEXT     SCREEN      :          160          50
** INFO   :  NUMBER OF COLOURS AVAILABLE     :          256
** DEBUG  :            0  0.1000020     NOD(KMAX)
** DEBUG  :            6  0.7000140     XK (KMAX), YK (KMAX), ZK (KMAX), KC (KMAX), NMK (KMAX), RNOD(KMAX)
