10-04 15:37 root         INFO     Converting from Sobek3 to D-Flow FM: model6.md1d
10-04 15:37 sobek3Reader INFO     Reading Sobek files
10-04 15:37 sobek3Reader INFO     Number of Nodes     :4
10-04 15:37 sobek3Reader INFO     Number of Branches  :3
10-04 15:37 sobek3Reader INFO     Number of Boundaries:1
10-04 15:37 converter    INFO     Converting
10-04 15:37 FMWriter     INFO     Writing FM files
10-04 15:37 UgridWriter  INFO     Writing Ugrid file
10-04 15:37 root         INFO     Finished
