 Delft3D-WAQ version  4.5120 11-09-2007
 Only to be used by Buffel                                  
 (c) Delft Hydraulics
 Execution start: 2010/11/10 16:42:48 
       ----------> Version number of the input file is: 4.910
       ----------> Output level of the listfile is: 9


 Model :            Water quality calculation Sobek-WQ      
                                                            

 Including file: \SOBEK212\THOLX.LIT\WORK\DELWAQ4.INP                                                                                                                                                                                                                                                                                                                                                                                                                                                                                                                                                                                                                                                                                                                                                                                                                                                                                                                                                                                                    


 Run   :                                                    
                    T0: 2003.01.01 00:00:00  (scu=       1s)

 Intermediate version absolute timer detected !
 System clock is     1 seconds !

 Closing file: \SOBEK212\THOLX.LIT\WORK\DELWAQ4.INP                                          

 Continuing on file: delwaq.inp                                                                    

 Including file: \SOBEK212\THOLX.LIT\5\SUBSTANC.DWQ                                                                                                                                                                                                                                                                                                                                                                                                                                                                                                                                                                                                                                                                                                                                                                                                                                                                                                                                                                                                      

 Number of active constituents   :  4
 Number of inactive constituents :  0
 Total number of constituents    :  4
 Number   name
    1     Cl                  
    2     cTR1                
    3     cTR2                
    4     cTR3                

 Closing file: \SOBEK212\THOLX.LIT\5\SUBSTANC.DWQ                                            

 Continuing on file: delwaq.inp                                                                    

 *********************************************************** B L O C K - 1 *****


 Including file: \SOBEK212\THOLX.LIT\WORK\DELWAQ1.INP                                                                                                                                                                                                                                                                                                                                                                                                                                                                                                                                                                                                                                                                                                                                                                                                                                                                                                                                                                                                    


 Factor between two clocks :       86400
 System clock in date-format  DDHHMMSS 
 Auxiliary timer in date-format DDHHMMSS 

 The auxiliary timer is not equal to the system timer.
 All the process fluxes will be scaled from the auxiliary timer to the system timer.

 Integration option :               15.70
 Start of simulation : 0Y-  0D- 0H- 0M- 0S.
 End of simulation   : 0Y-364D-23H- 0M- 0S.
 Selected option for time step size :  0
 Integration time stepsize is : 0Y-  0D- 0H-15M- 0S.

 Closing file: \SOBEK212\THOLX.LIT\WORK\DELWAQ1.INP                                          

 Continuing on file: delwaq.inp                                                                    

 Dump areas:
 option selected for input : 1
 Information from the standard input file.

 Including file: \SOBEK212\THOLX.LIT\5\OUTLOCWQ.DAT                                                                                                                                                                                                                                                                                                                                                                                                                                                                                                                                                                                                                                                                                                                                                                                                                                                                                                                                                                                                      

 Including file: ..\work\monitor.dat                                                                                                                                                                                                                                                                                                                                                                                                                                                                                                                                                                                                                                                                                                                                                                                                                                                                                                                                                                                                                     

 Number of dump areas :  379

 Dump area :    1 : Chloride_MPN5308    
 Number of segments in area :              1
          number   segment
              1           2312

 Dump area :    2 : Chloride_MPN5309    
 Number of segments in area :              1
          number   segment
              1             45

 Dump area :    3 : Chloride_MPN5307    
 Number of segments in area :              1
          number   segment
              1           1514

 Dump area :    4 : Chloride_MPN5314    
 Number of segments in area :              1
          number   segment
              1            528

 Dump area :    5 : Chloride_MPN5313    
 Number of segments in area :              1
          number   segment
              1           1557

 Dump area :    6 : Chloride_MPN5315    
 Number of segments in area :              1
          number   segment
              1            693

 Dump area :    7 : Chloride_MPN5316    
 Number of segments in area :              1
          number   segment
              1           1610

 Dump area :    8 : Chloride_MPN1233    
 Number of segments in area :              1
          number   segment
              1           1731

 Dump area :    9 : Chloride_MPN5317    
 Number of segments in area :              1
          number   segment
              1           2155

 Dump area :   10 : Chloride_MPN5319    
 Number of segments in area :              1
          number   segment
              1            198

 Dump area :   11 : Chloride_MPN5318    
 Number of segments in area :              1
          number   segment
              1           2153

 Dump area :   12 : Chloride_MPN5311    
 Number of segments in area :              1
          number   segment
              1           1671

 Dump area :   13 : Chloride_MPN5310    
 Number of segments in area :              1
          number   segment
              1           1682

 Dump area :   14 : Chloride_MPN1282    
 Number of segments in area :              1
          number   segment
              1           2161

 Dump area :   15 : Chloride_MPN5729    
 Number of segments in area :              1
          number   segment
              1            793

 Dump area :   16 : Chloride_MPN7969    
 Number of segments in area :              1
          number   segment
              1            789

 Dump area :   17 : Chloride_MPN5312    
 Number of segments in area :              1
          number   segment
              1           1654

 Dump area :   18 : Chloride_MPN1231    
 Number of segments in area :              1
          number   segment
              1           1349

 Dump area :   19 : Chloride_MPN7968    
 Number of segments in area :              1
          number   segment
              1           1256

 Dump area :   20 : Chloride_MPN1262    
 Number of segments in area :              1
          number   segment
              1           2215

 Dump area :   21 : Chloride_MPN5711    
 Number of segments in area :              1
          number   segment
              1           2216

 Dump area :   22 : Chloride_MPN1229    
 Number of segments in area :              1
          number   segment
              1           1032

 Dump area :   23 : Chloride_MPN1227    
 Number of segments in area :              1
          number   segment
              1            998

 Dump area :   24 : Chloride_Oud_Kijkuit
 Number of segments in area :              1
          number   segment
              1            459

 Dump area :   25 : Chloride_Deurloo    
 Number of segments in area :              1
          number   segment
              1            108

 Dump area :   26 : Chloride_mpRA11     
 Number of segments in area :              1
          number   segment
              1           1746

 Dump area :   27 : Chloride_mpRA18     
 Number of segments in area :              1
          number   segment
              1           1528

 Dump area :   28 : Chloride_mpRA17     
 Number of segments in area :              1
          number   segment
              1           1638

 Dump area :   29 : Chloride_mpRA16     
 Number of segments in area :              1
          number   segment
              1           1624

 Dump area :   30 : Chloride_mpRA14     
 Number of segments in area :              1
          number   segment
              1            466

 Dump area :   31 : Chloride_mpRA13     
 Number of segments in area :              1
          number   segment
              1            457

 Dump area :   32 : Chloride_mpRA12     
 Number of segments in area :              1
          number   segment
              1           1589

 Dump area :   33 : Chloride_mpRA7      
 Number of segments in area :              1
          number   segment
              1             99

 Dump area :   34 : Chloride_mpRA8      
 Number of segments in area :              1
          number   segment
              1           1384

 Dump area :   35 : Chloride_mpRA9      
 Number of segments in area :              1
          number   segment
              1           1386

 Dump area :   36 : Chloride_mpRA10     
 Number of segments in area :              1
          number   segment
              1           1400

 Dump area :   37 : Chloride_mpRA5      
 Number of segments in area :              1
          number   segment
              1           1764

 Dump area :   38 : Chloride_mpRA28     
 Number of segments in area :              1
          number   segment
              1           1766

 Dump area :   39 : Chloride_mpRA1      
 Number of segments in area :              1
          number   segment
              1           1774

 Dump area :   40 : Chloride_mpRA2      
 Number of segments in area :              1
          number   segment
              1           1675

 Dump area :   41 : Chloride_mpRA3      
 Number of segments in area :              1
          number   segment
              1           1669

 Dump area :   42 : Chloride_mpRA4      
 Number of segments in area :              1
          number   segment
              1           1665

 Dump area :   43 : Chloride_mpRA6      
 Number of segments in area :              1
          number   segment
              1            720

 Dump area :   44 : 16                  
 Number of segments in area :              1
          number   segment
              1             25

 Dump area :   45 : 200                 
 Number of segments in area :              1
          number   segment
              1            165

 Dump area :   46 : 227                 
 Number of segments in area :              1
          number   segment
              1            172

 Dump area :   47 : MP_KGM28            
 Number of segments in area :              1
          number   segment
              1            106

 Dump area :   48 : 381                 
 Number of segments in area :              1
          number   segment
              1            302

 Dump area :   49 : 491                 
 Number of segments in area :              1
          number   segment
              1            347

 Dump area :   50 : MP_KGM72            
 Number of segments in area :              1
          number   segment
              1            355

 Dump area :   51 : 528                 
 Number of segments in area :              1
          number   segment
              1            368

 Dump area :   52 : 561                 
 Number of segments in area :              1
          number   segment
              1            376

 Dump area :   53 : 587                 
 Number of segments in area :              1
          number   segment
              1            404

 Dump area :   54 : 1191                
 Number of segments in area :              1
          number   segment
              1            427

 Dump area :   55 : 658                 
 Number of segments in area :              1
          number   segment
              1           1778

 Dump area :   56 : 674                 
 Number of segments in area :              1
          number   segment
              1            444

 Dump area :   57 : 686                 
 Number of segments in area :              1
          number   segment
              1            454

 Dump area :   58 : 734                 
 Number of segments in area :              1
          number   segment
              1            492

 Dump area :   59 : 1186                
 Number of segments in area :              1
          number   segment
              1            575

 Dump area :   60 : 896                 
 Number of segments in area :              1
          number   segment
              1            616

 Dump area :   61 : 1019                
 Number of segments in area :              1
          number   segment
              1            688

 Dump area :   62 : 1053                
 Number of segments in area :              1
          number   segment
              1            721

 Dump area :   63 : MP_8                
 Number of segments in area :              1
          number   segment
              1             61

 Dump area :   64 : MP_KST87            
 Number of segments in area :              1
          number   segment
              1            244

 Dump area :   65 : BOUND_STM           
 Number of segments in area :              1
          number   segment
              1           1024

 Dump area :   66 : 1174                
 Number of segments in area :              1
          number   segment
              1           1142

 Dump area :   67 : MP_KST113           
 Number of segments in area :              1
          number   segment
              1           1155

 Dump area :   68 : MP_KGM99            
 Number of segments in area :              1
          number   segment
              1           1194

 Dump area :   69 : MP_2                
 Number of segments in area :              1
          number   segment
              1           1301

 Dump area :   70 : MP_KGM30            
 Number of segments in area :              1
          number   segment
              1           1335

 Dump area :   71 : MP_KGM100           
 Number of segments in area :              1
          number   segment
              1           1701

 Dump area :   72 : MP_KST83            
 Number of segments in area :              1
          number   segment
              1           1483

 Dump area :   73 : MP_KST118           
 Number of segments in area :              1
          number   segment
              1           1493

 Dump area :   74 : MP_KGM23            
 Number of segments in area :              1
          number   segment
              1           1525

 Dump area :   75 : MP_5                
 Number of segments in area :              1
          number   segment
              1           1532

 Dump area :   76 : MP_KST632           
 Number of segments in area :              1
          number   segment
              1           1599

 Dump area :   77 : MP_KGM29            
 Number of segments in area :              1
          number   segment
              1           1732

 Dump area :   78 : MP_7                
 Number of segments in area :              1
          number   segment
              1           1688

 Dump area :   79 : cGFE1000            
 Number of segments in area :              1
          number   segment
              1           2053

 Dump area :   80 : cGFE1001            
 Number of segments in area :              1
          number   segment
              1           2054

 Dump area :   81 : cGFE1002            
 Number of segments in area :              1
          number   segment
              1           2055

 Dump area :   82 : cGFE1003            
 Number of segments in area :              1
          number   segment
              1           2056

 Dump area :   83 : cGFE1004            
 Number of segments in area :              1
          number   segment
              1           2057

 Dump area :   84 : cGFE1005            
 Number of segments in area :              1
          number   segment
              1           2058

 Dump area :   85 : cGFE1006            
 Number of segments in area :              1
          number   segment
              1           2059

 Dump area :   86 : cGFE1007            
 Number of segments in area :              1
          number   segment
              1           2060

 Dump area :   87 : cGFE1008            
 Number of segments in area :              1
          number   segment
              1           2061

 Dump area :   88 : cGFE1009            
 Number of segments in area :              1
          number   segment
              1           2062

 Dump area :   89 : cGFE1010            
 Number of segments in area :              1
          number   segment
              1           2063

 Dump area :   90 : cGFE1011            
 Number of segments in area :              1
          number   segment
              1           2064

 Dump area :   91 : cGFE1012            
 Number of segments in area :              1
          number   segment
              1           2065

 Dump area :   92 : cGFE1013            
 Number of segments in area :              1
          number   segment
              1           2066

 Dump area :   93 : cGFE1014            
 Number of segments in area :              1
          number   segment
              1           2067

 Dump area :   94 : cGFE1015            
 Number of segments in area :              1
          number   segment
              1           2068

 Dump area :   95 : cGFE1016            
 Number of segments in area :              1
          number   segment
              1           2069

 Dump area :   96 : cGFE1017            
 Number of segments in area :              1
          number   segment
              1           2070

 Dump area :   97 : cGFE1018            
 Number of segments in area :              1
          number   segment
              1           2071

 Dump area :   98 : cGFE1019            
 Number of segments in area :              1
          number   segment
              1           2072

 Dump area :   99 : cGFE1020            
 Number of segments in area :              1
          number   segment
              1           2073

 Dump area :  100 : cGFE1021            
 Number of segments in area :              1
          number   segment
              1           2074

 Dump area :  101 : cGFE1022            
 Number of segments in area :              1
          number   segment
              1           2075

 Dump area :  102 : cGFE1023            
 Number of segments in area :              1
          number   segment
              1           2076

 Dump area :  103 : cGFE1024            
 Number of segments in area :              1
          number   segment
              1           2077

 Dump area :  104 : cGFE1025            
 Number of segments in area :              1
          number   segment
              1           2078

 Dump area :  105 : cGFE1026            
 Number of segments in area :              1
          number   segment
              1           2079

 Dump area :  106 : cGFE1027            
 Number of segments in area :              1
          number   segment
              1           2080

 Dump area :  107 : cGFE1028            
 Number of segments in area :              1
          number   segment
              1           2081

 Dump area :  108 : cGFE1029            
 Number of segments in area :              1
          number   segment
              1           2082

 Dump area :  109 : cGFE1030            
 Number of segments in area :              1
          number   segment
              1           2083

 Dump area :  110 : cGFE1031            
 Number of segments in area :              1
          number   segment
              1           2084

 Dump area :  111 : cGFE1032            
 Number of segments in area :              1
          number   segment
              1           2085

 Dump area :  112 : cGFE1033            
 Number of segments in area :              1
          number   segment
              1           2086

 Dump area :  113 : cGFE1034            
 Number of segments in area :              1
          number   segment
              1           2087

 Dump area :  114 : cGFE1035            
 Number of segments in area :              1
          number   segment
              1           2088

 Dump area :  115 : cGFE1036            
 Number of segments in area :              1
          number   segment
              1           2089

 Dump area :  116 : cGFE1037            
 Number of segments in area :              1
          number   segment
              1           2090

 Dump area :  117 : cGFE1038            
 Number of segments in area :              1
          number   segment
              1           2091

 Dump area :  118 : cGFE1039            
 Number of segments in area :              1
          number   segment
              1           2092

 Dump area :  119 : cGFE1040            
 Number of segments in area :              1
          number   segment
              1           2093

 Dump area :  120 : cGFE1041            
 Number of segments in area :              1
          number   segment
              1           2094

 Dump area :  121 : cGFE1042            
 Number of segments in area :              1
          number   segment
              1           2095

 Dump area :  122 : cGFE1043            
 Number of segments in area :              1
          number   segment
              1           2096

 Dump area :  123 : cGFE1045            
 Number of segments in area :              1
          number   segment
              1           2097

 Dump area :  124 : cGFE1046            
 Number of segments in area :              1
          number   segment
              1           2098

 Dump area :  125 : cGFE1047            
 Number of segments in area :              1
          number   segment
              1           2099

 Dump area :  126 : cGFE1048            
 Number of segments in area :              1
          number   segment
              1           2100

 Dump area :  127 : cGFE1049            
 Number of segments in area :              1
          number   segment
              1           2101

 Dump area :  128 : cGFE1050            
 Number of segments in area :              1
          number   segment
              1           2102

 Dump area :  129 : cGFE1051            
 Number of segments in area :              1
          number   segment
              1           2103

 Dump area :  130 : cGFE1052            
 Number of segments in area :              1
          number   segment
              1           2104

 Dump area :  131 : cGFE1053            
 Number of segments in area :              1
          number   segment
              1           2105

 Dump area :  132 : cGFE1054            
 Number of segments in area :              1
          number   segment
              1           2106

 Dump area :  133 : cGFE1055            
 Number of segments in area :              1
          number   segment
              1           2107

 Dump area :  134 : cGFE1056            
 Number of segments in area :              1
          number   segment
              1           2108

 Dump area :  135 : cGFE1057            
 Number of segments in area :              1
          number   segment
              1           2109

 Dump area :  136 : cGFE1058            
 Number of segments in area :              1
          number   segment
              1           2110

 Dump area :  137 : cGFE1059            
 Number of segments in area :              1
          number   segment
              1           2111

 Dump area :  138 : cGFE1060            
 Number of segments in area :              1
          number   segment
              1           2112

 Dump area :  139 : cGFE1061            
 Number of segments in area :              1
          number   segment
              1           2113

 Dump area :  140 : cGFE1062            
 Number of segments in area :              1
          number   segment
              1           2114

 Dump area :  141 : cGFE1063            
 Number of segments in area :              1
          number   segment
              1           2115

 Dump area :  142 : cGFE1064            
 Number of segments in area :              1
          number   segment
              1           2116

 Dump area :  143 : cGFE1065            
 Number of segments in area :              1
          number   segment
              1           2117

 Dump area :  144 : cGFE1066            
 Number of segments in area :              1
          number   segment
              1           2118

 Dump area :  145 : cGFE1067            
 Number of segments in area :              1
          number   segment
              1           2119

 Dump area :  146 : cGFE1068            
 Number of segments in area :              1
          number   segment
              1           2120

 Dump area :  147 : cGFE1069            
 Number of segments in area :              1
          number   segment
              1           2121

 Dump area :  148 : cGFE1070            
 Number of segments in area :              1
          number   segment
              1           2122

 Dump area :  149 : cGFE1071            
 Number of segments in area :              1
          number   segment
              1           2123

 Dump area :  150 : cGFE1072            
 Number of segments in area :              1
          number   segment
              1           2124

 Dump area :  151 : cGFE1073            
 Number of segments in area :              1
          number   segment
              1           2125

 Dump area :  152 : cGFE1074            
 Number of segments in area :              1
          number   segment
              1           2126

 Dump area :  153 : cGFE1075            
 Number of segments in area :              1
          number   segment
              1           2127

 Dump area :  154 : cGFE1076            
 Number of segments in area :              1
          number   segment
              1           2128

 Dump area :  155 : cGFE1077            
 Number of segments in area :              1
          number   segment
              1           2129

 Dump area :  156 : cGFE1078            
 Number of segments in area :              1
          number   segment
              1           2130

 Dump area :  157 : cGFE1079            
 Number of segments in area :              1
          number   segment
              1           2131

 Dump area :  158 : cGFE1080            
 Number of segments in area :              1
          number   segment
              1           2132

 Dump area :  159 : cGFE1081            
 Number of segments in area :              1
          number   segment
              1           2133

 Dump area :  160 : cGFE1082            
 Number of segments in area :              1
          number   segment
              1           2134

 Dump area :  161 : cGFE1083            
 Number of segments in area :              1
          number   segment
              1           2135

 Dump area :  162 : cGFE1084            
 Number of segments in area :              1
          number   segment
              1           2136

 Dump area :  163 : cGFE1085            
 Number of segments in area :              1
          number   segment
              1           2137

 Dump area :  164 : cGFE1086            
 Number of segments in area :              1
          number   segment
              1           2138

 Dump area :  165 : cGFE1087            
 Number of segments in area :              1
          number   segment
              1           2139

 Dump area :  166 : cGFE1089            
 Number of segments in area :              1
          number   segment
              1           2140

 Dump area :  167 : cGFE1090            
 Number of segments in area :              1
          number   segment
              1           2141

 Dump area :  168 : cGFE1091            
 Number of segments in area :              1
          number   segment
              1           2142

 Dump area :  169 : cGFE1092            
 Number of segments in area :              1
          number   segment
              1           2143

 Dump area :  170 : cGFE1093            
 Number of segments in area :              1
          number   segment
              1           2144

 Dump area :  171 : cGFE820             
 Number of segments in area :              1
          number   segment
              1           2145

 Dump area :  172 : cGFE821             
 Number of segments in area :              1
          number   segment
              1           2146

 Dump area :  173 : cGFE822             
 Number of segments in area :              1
          number   segment
              1           2147

 Dump area :  174 : cGFE823             
 Number of segments in area :              1
          number   segment
              1           2148

 Dump area :  175 : cGFE824             
 Number of segments in area :              1
          number   segment
              1           2149

 Dump area :  176 : cGFE825             
 Number of segments in area :              1
          number   segment
              1           2150

 Dump area :  177 : cGFE826             
 Number of segments in area :              1
          number   segment
              1           2151

 Dump area :  178 : cGFE827             
 Number of segments in area :              1
          number   segment
              1           2152

 Dump area :  179 : cGFE828             
 Number of segments in area :              1
          number   segment
              1           2153

 Dump area :  180 : cGFE829             
 Number of segments in area :              1
          number   segment
              1           2154

 Dump area :  181 : cGFE830             
 Number of segments in area :              1
          number   segment
              1           2155

 Dump area :  182 : cGFE831             
 Number of segments in area :              1
          number   segment
              1           2156

 Dump area :  183 : cGFE832             
 Number of segments in area :              1
          number   segment
              1           2157

 Dump area :  184 : cGFE833             
 Number of segments in area :              1
          number   segment
              1           2158

 Dump area :  185 : cGFE834             
 Number of segments in area :              1
          number   segment
              1           2159

 Dump area :  186 : cGFE835             
 Number of segments in area :              1
          number   segment
              1           2160

 Dump area :  187 : cGFE836             
 Number of segments in area :              1
          number   segment
              1           2161

 Dump area :  188 : cGFE837             
 Number of segments in area :              1
          number   segment
              1           2162

 Dump area :  189 : cGFE838             
 Number of segments in area :              1
          number   segment
              1           2163

 Dump area :  190 : cGFE839             
 Number of segments in area :              1
          number   segment
              1           2164

 Dump area :  191 : cGFE840             
 Number of segments in area :              1
          number   segment
              1           2165

 Dump area :  192 : cGFE841             
 Number of segments in area :              1
          number   segment
              1           2166

 Dump area :  193 : cGFE842             
 Number of segments in area :              1
          number   segment
              1           2167

 Dump area :  194 : cGFE843             
 Number of segments in area :              1
          number   segment
              1           2168

 Dump area :  195 : cGFE844             
 Number of segments in area :              1
          number   segment
              1           2169

 Dump area :  196 : cGFE845             
 Number of segments in area :              1
          number   segment
              1           2170

 Dump area :  197 : cGFE846             
 Number of segments in area :              1
          number   segment
              1           2171

 Dump area :  198 : cGFE847             
 Number of segments in area :              1
          number   segment
              1           2172

 Dump area :  199 : cGFE848             
 Number of segments in area :              1
          number   segment
              1           2173

 Dump area :  200 : cGFE849             
 Number of segments in area :              1
          number   segment
              1           2174

 Dump area :  201 : cGFE850             
 Number of segments in area :              1
          number   segment
              1           2175

 Dump area :  202 : cGFE851             
 Number of segments in area :              1
          number   segment
              1           2176

 Dump area :  203 : cGFE852             
 Number of segments in area :              1
          number   segment
              1           2177

 Dump area :  204 : cGFE853             
 Number of segments in area :              1
          number   segment
              1           2178

 Dump area :  205 : cGFE854             
 Number of segments in area :              1
          number   segment
              1           2179

 Dump area :  206 : cGFE855             
 Number of segments in area :              1
          number   segment
              1           2180

 Dump area :  207 : cGFE856             
 Number of segments in area :              1
          number   segment
              1           2181

 Dump area :  208 : cGFE857             
 Number of segments in area :              1
          number   segment
              1           2182

 Dump area :  209 : cGFE858             
 Number of segments in area :              1
          number   segment
              1           2183

 Dump area :  210 : cGFE859             
 Number of segments in area :              1
          number   segment
              1           2184

 Dump area :  211 : cGFE860             
 Number of segments in area :              1
          number   segment
              1           2185

 Dump area :  212 : cGFE861             
 Number of segments in area :              1
          number   segment
              1           2186

 Dump area :  213 : cGFE862             
 Number of segments in area :              1
          number   segment
              1           2187

 Dump area :  214 : cGFE863             
 Number of segments in area :              1
          number   segment
              1           2188

 Dump area :  215 : cGFE864             
 Number of segments in area :              1
          number   segment
              1           2189

 Dump area :  216 : cGFE865             
 Number of segments in area :              1
          number   segment
              1           2190

 Dump area :  217 : cGFE866             
 Number of segments in area :              1
          number   segment
              1           2191

 Dump area :  218 : cGFE867             
 Number of segments in area :              1
          number   segment
              1           2192

 Dump area :  219 : cGFE868             
 Number of segments in area :              1
          number   segment
              1           2193

 Dump area :  220 : cGFE869             
 Number of segments in area :              1
          number   segment
              1           2194

 Dump area :  221 : cGFE870             
 Number of segments in area :              1
          number   segment
              1           2195

 Dump area :  222 : cGFE871             
 Number of segments in area :              1
          number   segment
              1           2196

 Dump area :  223 : cGFE872             
 Number of segments in area :              1
          number   segment
              1           2197

 Dump area :  224 : cGFE873             
 Number of segments in area :              1
          number   segment
              1           2198

 Dump area :  225 : cGFE874             
 Number of segments in area :              1
          number   segment
              1           2199

 Dump area :  226 : cGFE875             
 Number of segments in area :              1
          number   segment
              1           2200

 Dump area :  227 : cGFE876             
 Number of segments in area :              1
          number   segment
              1           2201

 Dump area :  228 : cGFE877             
 Number of segments in area :              1
          number   segment
              1           2202

 Dump area :  229 : cGFE878             
 Number of segments in area :              1
          number   segment
              1           2203

 Dump area :  230 : cGFE879             
 Number of segments in area :              1
          number   segment
              1           2204

 Dump area :  231 : cGFE880             
 Number of segments in area :              1
          number   segment
              1           2205

 Dump area :  232 : cGFE881             
 Number of segments in area :              1
          number   segment
              1           2206

 Dump area :  233 : cGFE882             
 Number of segments in area :              1
          number   segment
              1           2207

 Dump area :  234 : cGFE883             
 Number of segments in area :              1
          number   segment
              1           2208

 Dump area :  235 : cGFE884             
 Number of segments in area :              1
          number   segment
              1           2209

 Dump area :  236 : cGFE885             
 Number of segments in area :              1
          number   segment
              1           2210

 Dump area :  237 : cGFE886             
 Number of segments in area :              1
          number   segment
              1           2388

 Dump area :  238 : cGFE887             
 Number of segments in area :              1
          number   segment
              1           2212

 Dump area :  239 : cGFE888             
 Number of segments in area :              1
          number   segment
              1           2213

 Dump area :  240 : cGFE889             
 Number of segments in area :              1
          number   segment
              1           2214

 Dump area :  241 : cGFE890             
 Number of segments in area :              1
          number   segment
              1           2215

 Dump area :  242 : cGFE891             
 Number of segments in area :              1
          number   segment
              1           2216

 Dump area :  243 : cGFE892             
 Number of segments in area :              1
          number   segment
              1           2217

 Dump area :  244 : cGFE893             
 Number of segments in area :              1
          number   segment
              1           2218

 Dump area :  245 : cGFE894             
 Number of segments in area :              1
          number   segment
              1           2219

 Dump area :  246 : cGFE895             
 Number of segments in area :              1
          number   segment
              1           2220

 Dump area :  247 : cGFE896             
 Number of segments in area :              1
          number   segment
              1           2221

 Dump area :  248 : cGFE897             
 Number of segments in area :              1
          number   segment
              1           2222

 Dump area :  249 : cGFE898             
 Number of segments in area :              1
          number   segment
              1           2223

 Dump area :  250 : cGFE899             
 Number of segments in area :              1
          number   segment
              1           2224

 Dump area :  251 : cGFE900             
 Number of segments in area :              1
          number   segment
              1           2225

 Dump area :  252 : cGFE901             
 Number of segments in area :              1
          number   segment
              1           2226

 Dump area :  253 : cGFE902             
 Number of segments in area :              1
          number   segment
              1           2227

 Dump area :  254 : cGFE903             
 Number of segments in area :              1
          number   segment
              1           2228

 Dump area :  255 : cGFE904             
 Number of segments in area :              1
          number   segment
              1           2229

 Dump area :  256 : cGFE905             
 Number of segments in area :              1
          number   segment
              1           2230

 Dump area :  257 : cGFE906             
 Number of segments in area :              1
          number   segment
              1           2231

 Dump area :  258 : cGFE907             
 Number of segments in area :              1
          number   segment
              1           2232

 Dump area :  259 : cGFE908             
 Number of segments in area :              1
          number   segment
              1           2233

 Dump area :  260 : cGFE909             
 Number of segments in area :              1
          number   segment
              1           2234

 Dump area :  261 : cGFE910             
 Number of segments in area :              1
          number   segment
              1           2235

 Dump area :  262 : cGFE911             
 Number of segments in area :              1
          number   segment
              1           2236

 Dump area :  263 : cGFE912             
 Number of segments in area :              1
          number   segment
              1           2237

 Dump area :  264 : cGFE913             
 Number of segments in area :              1
          number   segment
              1           2238

 Dump area :  265 : cGFE914             
 Number of segments in area :              1
          number   segment
              1           2239

 Dump area :  266 : cGFE915             
 Number of segments in area :              1
          number   segment
              1           2240

 Dump area :  267 : cGFE916             
 Number of segments in area :              1
          number   segment
              1           2241

 Dump area :  268 : cGFE917             
 Number of segments in area :              1
          number   segment
              1           2242

 Dump area :  269 : cGFE918             
 Number of segments in area :              1
          number   segment
              1           2243

 Dump area :  270 : cGFE919             
 Number of segments in area :              1
          number   segment
              1           2244

 Dump area :  271 : cGFE920             
 Number of segments in area :              1
          number   segment
              1           2245

 Dump area :  272 : cGFE921             
 Number of segments in area :              1
          number   segment
              1           2246

 Dump area :  273 : cGFE922             
 Number of segments in area :              1
          number   segment
              1           2247

 Dump area :  274 : cGFE923             
 Number of segments in area :              1
          number   segment
              1           2248

 Dump area :  275 : cGFE924             
 Number of segments in area :              1
          number   segment
              1           2249

 Dump area :  276 : cGFE925             
 Number of segments in area :              1
          number   segment
              1           2250

 Dump area :  277 : cGFE926             
 Number of segments in area :              1
          number   segment
              1           2251

 Dump area :  278 : cGFE927             
 Number of segments in area :              1
          number   segment
              1           2252

 Dump area :  279 : cGFE928             
 Number of segments in area :              1
          number   segment
              1           2253

 Dump area :  280 : cGFE929             
 Number of segments in area :              1
          number   segment
              1           2254

 Dump area :  281 : cGFE930             
 Number of segments in area :              1
          number   segment
              1           2255

 Dump area :  282 : cGFE931             
 Number of segments in area :              1
          number   segment
              1           2256

 Dump area :  283 : cGFE932             
 Number of segments in area :              1
          number   segment
              1           2257

 Dump area :  284 : cGFE934             
 Number of segments in area :              1
          number   segment
              1           2258

 Dump area :  285 : cGFE935             
 Number of segments in area :              1
          number   segment
              1           2259

 Dump area :  286 : cGFE936             
 Number of segments in area :              1
          number   segment
              1           2260

 Dump area :  287 : cGFE937             
 Number of segments in area :              1
          number   segment
              1           2261

 Dump area :  288 : cGFE938             
 Number of segments in area :              1
          number   segment
              1           2262

 Dump area :  289 : cGFE939             
 Number of segments in area :              1
          number   segment
              1           2263

 Dump area :  290 : cGFE940             
 Number of segments in area :              1
          number   segment
              1           2264

 Dump area :  291 : cGFE941             
 Number of segments in area :              1
          number   segment
              1           2265

 Dump area :  292 : cGFE942             
 Number of segments in area :              1
          number   segment
              1           2266

 Dump area :  293 : cGFE943             
 Number of segments in area :              1
          number   segment
              1           2267

 Dump area :  294 : cGFE944             
 Number of segments in area :              1
          number   segment
              1           2268

 Dump area :  295 : cGFE945             
 Number of segments in area :              1
          number   segment
              1           2269

 Dump area :  296 : cGFE946             
 Number of segments in area :              1
          number   segment
              1           2270

 Dump area :  297 : cGFE947             
 Number of segments in area :              1
          number   segment
              1           2271

 Dump area :  298 : cGFE948             
 Number of segments in area :              1
          number   segment
              1           2272

 Dump area :  299 : cGFE949             
 Number of segments in area :              1
          number   segment
              1           2273

 Dump area :  300 : cGFE950             
 Number of segments in area :              1
          number   segment
              1           2274

 Dump area :  301 : cGFE951             
 Number of segments in area :              1
          number   segment
              1           2275

 Dump area :  302 : cGFE952             
 Number of segments in area :              1
          number   segment
              1           2276

 Dump area :  303 : cGFE953             
 Number of segments in area :              1
          number   segment
              1           2277

 Dump area :  304 : cGFE954             
 Number of segments in area :              1
          number   segment
              1           2278

 Dump area :  305 : cGFE955             
 Number of segments in area :              1
          number   segment
              1           2279

 Dump area :  306 : cGFE956             
 Number of segments in area :              1
          number   segment
              1           2280

 Dump area :  307 : cGFE957             
 Number of segments in area :              1
          number   segment
              1           2281

 Dump area :  308 : cGFE958             
 Number of segments in area :              1
          number   segment
              1           2282

 Dump area :  309 : cGFE959             
 Number of segments in area :              1
          number   segment
              1           2283

 Dump area :  310 : cGFE960             
 Number of segments in area :              1
          number   segment
              1           2284

 Dump area :  311 : cGFE961             
 Number of segments in area :              1
          number   segment
              1           2285

 Dump area :  312 : cGFE962             
 Number of segments in area :              1
          number   segment
              1           2286

 Dump area :  313 : cGFE963             
 Number of segments in area :              1
          number   segment
              1           2287

 Dump area :  314 : cGFE964             
 Number of segments in area :              1
          number   segment
              1           2288

 Dump area :  315 : cGFE965             
 Number of segments in area :              1
          number   segment
              1           2289

 Dump area :  316 : cGFE966             
 Number of segments in area :              1
          number   segment
              1           2290

 Dump area :  317 : cGFE967             
 Number of segments in area :              1
          number   segment
              1           2291

 Dump area :  318 : cGFE968             
 Number of segments in area :              1
          number   segment
              1           2292

 Dump area :  319 : cGFE969             
 Number of segments in area :              1
          number   segment
              1           2293

 Dump area :  320 : cGFE970             
 Number of segments in area :              1
          number   segment
              1           2294

 Dump area :  321 : cGFE971             
 Number of segments in area :              1
          number   segment
              1           2295

 Dump area :  322 : cGFE972             
 Number of segments in area :              1
          number   segment
              1           2296

 Dump area :  323 : cGFE973             
 Number of segments in area :              1
          number   segment
              1           2297

 Dump area :  324 : cGFE974             
 Number of segments in area :              1
          number   segment
              1           2298

 Dump area :  325 : cGFE975             
 Number of segments in area :              1
          number   segment
              1           2299

 Dump area :  326 : cGFE976             
 Number of segments in area :              1
          number   segment
              1           2300

 Dump area :  327 : cGFE977             
 Number of segments in area :              1
          number   segment
              1           2301

 Dump area :  328 : cGFE978             
 Number of segments in area :              1
          number   segment
              1           2302

 Dump area :  329 : cGFE979             
 Number of segments in area :              1
          number   segment
              1           2303

 Dump area :  330 : cGFE980             
 Number of segments in area :              1
          number   segment
              1           2304

 Dump area :  331 : cGFE981             
 Number of segments in area :              1
          number   segment
              1           2305

 Dump area :  332 : cGFE982             
 Number of segments in area :              1
          number   segment
              1           2306

 Dump area :  333 : cGFE983             
 Number of segments in area :              1
          number   segment
              1           2307

 Dump area :  334 : cGFE984             
 Number of segments in area :              1
          number   segment
              1           2308

 Dump area :  335 : cGFE985             
 Number of segments in area :              1
          number   segment
              1           2309

 Dump area :  336 : cGFE986             
 Number of segments in area :              1
          number   segment
              1           2310

 Dump area :  337 : cGFE987             
 Number of segments in area :              1
          number   segment
              1           2311

 Dump area :  338 : cGFE988             
 Number of segments in area :              1
          number   segment
              1           2312

 Dump area :  339 : cGFE989             
 Number of segments in area :              1
          number   segment
              1           2313

 Dump area :  340 : cGFE990             
 Number of segments in area :              1
          number   segment
              1           2314

 Dump area :  341 : cGFE991             
 Number of segments in area :              1
          number   segment
              1           2315

 Dump area :  342 : cGFE992             
 Number of segments in area :              1
          number   segment
              1           2316

 Dump area :  343 : cGFE993             
 Number of segments in area :              1
          number   segment
              1           2317

 Dump area :  344 : cGFE994             
 Number of segments in area :              1
          number   segment
              1           2318

 Dump area :  345 : cGFE995             
 Number of segments in area :              1
          number   segment
              1           2319

 Dump area :  346 : cGFE996             
 Number of segments in area :              1
          number   segment
              1           2320

 Dump area :  347 : cGFE997             
 Number of segments in area :              1
          number   segment
              1           2321

 Dump area :  348 : cGFE998             
 Number of segments in area :              1
          number   segment
              1           2322

 Dump area :  349 : cGFE999             
 Number of segments in area :              1
          number   segment
              1           2323

 Dump area :  350 : cGFE1044            
 Number of segments in area :              1
          number   segment
              1           2339

 Dump area :  351 : cGFE1088            
 Number of segments in area :              1
          number   segment
              1           2340

 Dump area :  352 : cGFE933             
 Number of segments in area :              1
          number   segment
              1           2341

 Dump area :  353 : MP_KGM97            
 Number of segments in area :              1
          number   segment
              1           1039

 Dump area :  354 : MP_KGM31            
 Number of segments in area :              1
          number   segment
              1           1353

 Dump area :  355 : MP_KGM24            
 Number of segments in area :              1
          number   segment
              1           1635

 Dump area :  356 : MP_KGM27            
 Number of segments in area :              1
          number   segment
              1           1774

 Dump area :  357 : MP_KGM26            
 Number of segments in area :              1
          number   segment
              1             23

 Dump area :  358 : MP_KGM73            
 Number of segments in area :              1
          number   segment
              1            250

 Dump area :  359 : 1190                
 Number of segments in area :              1
          number   segment
              1            426

 Dump area :  360 : 1187                
 Number of segments in area :              1
          number   segment
              1            574

 Dump area :  361 : MP_KGM21            
 Number of segments in area :              1
          number   segment
              1           1001

 Dump area :  362 : MP_KGM20            
 Number of segments in area :              1
          number   segment
              1           1107

 Dump area :  363 : MP_KGM19            
 Number of segments in area :              1
          number   segment
              1           1144

 Dump area :  364 : 1189                
 Number of segments in area :              1
          number   segment
              1            202

 Dump area :  365 : MP_3                
 Number of segments in area :              1
          number   segment
              1           1249

 Dump area :  366 : MP_KGM74            
 Number of segments in area :              1
          number   segment
              1           1385

 Dump area :  367 : 1188                
 Number of segments in area :              1
          number   segment
              1           1771

 Dump area :  368 : buitenwaterstand Sta
 Number of segments in area :              1
          number   segment
              1            921

 Dump area :  369 : 1181                
 Number of segments in area :              1
          number   segment
              1            949

 Dump area :  370 : 1183                
 Number of segments in area :              1
          number   segment
              1           2355

 Dump area :  371 : 1180                
 Number of segments in area :              1
          number   segment
              1            953

 Dump area :  372 : 1184                
 Number of segments in area :              1
          number   segment
              1             56

 Dump area :  373 : MP_1                
 Number of segments in area :              1
          number   segment
              1           1073

 Dump area :  374 : MP_6                
 Number of segments in area :              1
          number   segment
              1           1588

 Dump area :  375 : MP_9                
 Number of segments in area :              1
          number   segment
              1           1710

 Dump area :  376 : MP_Steenblokweg     
 Number of segments in area :              1
          number   segment
              1            958

 Dump area :  377 : SWT_Normal          
 Number of segments in area :           2337
          number   segment
              1              1
              2              2
              3              3
              4              4
              5              5
              6              6
              7              7
              8              8
              9              9
             10             10
             11             11
             12             12
             13             13
             14             14
             15             15
             16             16
             17             17
             18             18
             19             19
             20             20
             21             21
             22             22
             23             23
             24             24
             25             25
             26             26
             27             27
             28             28
             29             29
             30             30
             31             31
             32             32
             33             33
             34             34
             35             35
             36             36
             37             37
             38             38
             39             39
             40             40
             41             41
             42             42
             43             43
             44             44
             45             45
             46             46
             47             47
             48             48
             49             49
             50             50
             51             51
             52             52
             53             53
             54             54
             55             55
             56             56
             57             57
             58             58
             59             59
             60             60
             61             61
             62             62
             63             63
             64             64
             65             65
             66             66
             67             67
             68             68
             69             69
             70             70
             71             71
             72             72
             73             73
             74             74
             75             75
             76             76
             77             77
             78             78
             79             79
             80             80
             81             81
             82             82
             83             83
             84             84
             85             85
             86             86
             87             87
             88             88
             89             89
             90             90
             91             91
             92             92
             93             93
             94             94
             95             95
             96             96
             97             97
             98             98
             99             99
            100            100
            101            101
            102            102
            103            103
            104            104
            105            105
            106            106
            107            107
            108            108
            109            109
            110            110
            111            111
            112            112
            113            113
            114            114
            115            115
            116            116
            117            117
            118            118
            119            119
            120            120
            121            121
            122            122
            123            123
            124            124
            125            125
            126            126
            127            127
            128            128
            129            129
            130            130
            131            131
            132            132
            133            133
            134            134
            135            135
            136            136
            137            137
            138            138
            139            139
            140            140
            141            141
            142            142
            143            143
            144            144
            145            145
            146            146
            147            147
            148            148
            149            149
            150            150
            151            151
            152            152
            153            153
            154            154
            155            155
            156            156
            157            157
            158            158
            159            159
            160            160
            161            161
            162            162
            163            163
            164            164
            165            165
            166            166
            167            167
            168            168
            169            169
            170            170
            171            171
            172            172
            173            173
            174            174
            175            175
            176            176
            177            177
            178            178
            179            179
            180            180
            181            181
            182            182
            183            183
            184            184
            185            185
            186            186
            187            187
            188            188
            189            189
            190            190
            191            191
            192            192
            193            193
            194            194
            195            195
            196            196
            197            197
            198            198
            199            199
            200            200
            201            201
            202            202
            203            203
            204            204
            205            205
            206            206
            207            207
            208            208
            209            209
            210            210
            211            211
            212            212
            213            213
            214            214
            215            215
            216            216
            217            217
            218            218
            219            219
            220            220
            221            221
            222            222
            223            223
            224            224
            225            225
            226            226
            227            227
            228            228
            229            229
            230            230
            231            231
            232            232
            233            233
            234            234
            235            235
            236            236
            237            237
            238            238
            239            239
            240            240
            241            241
            242            242
            243            243
            244            244
            245            245
            246            246
            247            247
            248            248
            249            249
            250            250
            251            251
            252            252
            253            253
            254            254
            255            255
            256            256
            257            257
            258            258
            259            259
            260            260
            261            261
            262            262
            263            263
            264            264
            265            265
            266            266
            267            267
            268            268
            269            269
            270            270
            271            271
            272            272
            273            273
            274            274
            275            275
            276            276
            277            277
            278            278
            279            279
            280            280
            281            281
            282            282
            283            283
            284            284
            285            285
            286            286
            287            287
            288            288
            289            289
            290            290
            291            291
            292            292
            293            293
            294            294
            295            295
            296            296
            297            297
            298            298
            299            299
            300            300
            301            301
            302            302
            303            303
            304            304
            305            305
            306            306
            307            307
            308            308
            309            309
            310            310
            311            311
            312            312
            313            313
            314            314
            315            315
            316            316
            317            317
            318            318
            319            319
            320            320
            321            321
            322            322
            323            323
            324            324
            325            325
            326            326
            327            327
            328            328
            329            329
            330            330
            331            331
            332            332
            333            333
            334            334
            335            335
            336            336
            337            337
            338            338
            339            339
            340            340
            341            341
            342            342
            343            343
            344            344
            345            345
            346            346
            347            347
            348            348
            349            349
            350            350
            351            351
            352            352
            353            353
            354            354
            355            355
            356            356
            357            357
            358            358
            359            359
            360            360
            361            361
            362            362
            363            363
            364            364
            365            365
            366            366
            367            367
            368            368
            369            369
            370            370
            371            371
            372            372
            373            373
            374            374
            375            375
            376            376
            377            377
            378            378
            379            379
            380            380
            381            381
            382            382
            383            383
            384            384
            385            385
            386            386
            387            387
            388            388
            389            389
            390            390
            391            391
            392            392
            393            393
            394            394
            395            395
            396            396
            397            397
            398            398
            399            399
            400            400
            401            401
            402            402
            403            403
            404            404
            405            405
            406            406
            407            407
            408            408
            409            409
            410            410
            411            411
            412            412
            413            413
            414            414
            415            415
            416            416
            417            417
            418            418
            419            419
            420            420
            421            421
            422            422
            423            423
            424            424
            425            425
            426            426
            427            427
            428            428
            429            429
            430            430
            431            431
            432            432
            433            433
            434            434
            435            435
            436            436
            437            437
            438            438
            439            439
            440            440
            441            441
            442            442
            443            443
            444            444
            445            445
            446            446
            447            447
            448            448
            449            449
            450            450
            451            451
            452            452
            453            453
            454            454
            455            455
            456            456
            457            457
            458            458
            459            459
            460            460
            461            461
            462            462
            463            463
            464            464
            465            465
            466            466
            467            467
            468            468
            469            469
            470            470
            471            471
            472            472
            473            473
            474            474
            475            475
            476            476
            477            477
            478            478
            479            479
            480            480
            481            481
            482            482
            483            483
            484            484
            485            485
            486            486
            487            487
            488            488
            489            489
            490            490
            491            491
            492            492
            493            493
            494            494
            495            495
            496            496
            497            497
            498            498
            499            499
            500            500
            501            501
            502            502
            503            503
            504            504
            505            505
[...]
 segments    2246        2247        2248        2249        2250
 parameters   Segment     Segment     Segment     Segment     Segment     
         2    3.9789E+05  3.9870E+05  3.9766E+05  3.9798E+05  3.9856E+05
 segments    2251        2252        2253        2254        2255
 parameters   Segment     Segment     Segment     Segment     Segment     
         2    3.9792E+05  3.9849E+05  3.9890E+05  3.9894E+05  3.9952E+05
 segments    2256        2257        2258        2259        2260
 parameters   Segment     Segment     Segment     Segment     Segment     
         2    3.9958E+05  3.9935E+05  3.9927E+05  3.9978E+05  4.0081E+05
 segments    2261        2262        2263        2264        2265
 parameters   Segment     Segment     Segment     Segment     Segment     
         2    4.0073E+05  4.0045E+05  4.0059E+05  4.0034E+05  4.0050E+05
 segments    2266        2267        2268        2269        2270
 parameters   Segment     Segment     Segment     Segment     Segment     
         2    4.0000E+05  3.9971E+05  3.9957E+05  4.0113E+05  4.0109E+05
 segments    2271        2272        2273        2274        2275
 parameters   Segment     Segment     Segment     Segment     Segment     
         2    4.0175E+05  4.0155E+05  4.0133E+05  4.0217E+05  4.0210E+05
 segments    2276        2277        2278        2279        2280
 parameters   Segment     Segment     Segment     Segment     Segment     
         2    4.0155E+05  4.0250E+05  3.9605E+05  4.0151E+05  4.0104E+05
 segments    2281        2282        2283        2284        2285
 parameters   Segment     Segment     Segment     Segment     Segment     
         2    4.0289E+05  4.0254E+05  3.9620E+05  3.9624E+05  3.9653E+05
 segments    2286        2287        2288        2289        2290
 parameters   Segment     Segment     Segment     Segment     Segment     
         2    3.9688E+05  3.9678E+05  3.9741E+05  3.9691E+05  3.9765E+05
 segments    2291        2292        2293        2294        2295
 parameters   Segment     Segment     Segment     Segment     Segment     
         2    3.9784E+05  3.9825E+05  3.9885E+05  3.9815E+05  3.9651E+05
 segments    2296        2297        2298        2299        2300
 parameters   Segment     Segment     Segment     Segment     Segment     
         2    3.9693E+05  3.9724E+05  3.9791E+05  3.9832E+05  3.9838E+05
 segments    2301        2302        2303        2304        2305
 parameters   Segment     Segment     Segment     Segment     Segment     
         2    3.9852E+05  3.9889E+05  3.9854E+05  3.9900E+05  3.9941E+05
 segments    2306        2307        2308        2309        2310
 parameters   Segment     Segment     Segment     Segment     Segment     
         2    3.9946E+05  3.9951E+05  3.9957E+05  3.9958E+05  3.9660E+05
 segments    2311        2312        2313        2314        2315
 parameters   Segment     Segment     Segment     Segment     Segment     
         2    3.9715E+05  4.0163E+05  4.0171E+05  4.0144E+05  4.0129E+05
 segments    2316        2317        2318        2319        2320
 parameters   Segment     Segment     Segment     Segment     Segment     
         2    4.0095E+05  4.0069E+05  4.0127E+05  4.0038E+05  4.0050E+05
 segments    2321        2322        2323        2324        2325
 parameters   Segment     Segment     Segment     Segment     Segment     
         2    4.0054E+05  4.0069E+05  4.0055E+05  4.0045E+05  4.0002E+05
 segments    2326        2327        2328        2329        2330
 parameters   Segment     Segment     Segment     Segment     Segment     
         2    3.9881E+05  4.0088E+05  3.9443E+05  4.0165E+05  3.9563E+05
 segments    2331        2332        2333        2334        2335
 parameters   Segment     Segment     Segment     Segment     Segment     
         2    3.9386E+05  3.9352E+05  3.9516E+05  3.9724E+05  4.0114E+05
 segments    2336        2337        2338        2339        2340
 parameters   Segment     Segment     Segment     Segment     Segment     
         2    4.0289E+05  4.0253E+05  3.9825E+05  4.0096E+05  3.9998E+05
 segments    2341        2342        2343        2344        2345
 parameters   Segment     Segment     Segment     Segment     Segment     
         2    3.9931E+05  3.9931E+05  4.0055E+05  3.9694E+05  3.9694E+05
 segments    2346        2347        2348        2349        2350
 parameters   Segment     Segment     Segment     Segment     Segment     
         2    3.9694E+05  3.9898E+05  3.9898E+05  3.9898E+05  3.9971E+05
 segments    2351        2352        2353        2354        2355
 parameters   Segment     Segment     Segment     Segment     Segment     
         2    3.9971E+05  3.9688E+05  3.9687E+05  4.0069E+05  4.0055E+05
 segments    2356        2357        2358        2359        2360
 parameters   Segment     Segment     Segment     Segment     Segment     
         2    4.0047E+05  4.0041E+05  4.0038E+05  4.0035E+05  4.0036E+05
 segments    2361        2362        2363        2364        2365
 parameters   Segment     Segment     Segment     Segment     Segment     
         2    4.0038E+05  4.0079E+05  4.0081E+05  3.9451E+05  3.9449E+05
 segments    2366        2367        2368        2369        2370
 parameters   Segment     Segment     Segment     Segment     Segment     
         2    4.0190E+05  4.0189E+05  4.0188E+05  3.9984E+05  3.9983E+05
 segments    2371        2372        2373        2374        2375
 parameters   Segment     Segment     Segment     Segment     Segment     
         2    3.9983E+05  3.9487E+05  3.9486E+05  4.0082E+05  4.0080E+05
 segments    2376        2377        2378        2379        2380
 parameters   Segment     Segment     Segment     Segment     Segment     
         2    4.0078E+05  4.0078E+05  3.9388E+05  3.9395E+05  4.0262E+05
 segments    2381        2382        2383        2384        2385
 parameters   Segment     Segment     Segment     Segment     Segment     
         2    4.0263E+05  4.0311E+05  4.0311E+05  3.9993E+05  3.9994E+05
 segments    2386        2387        2388
 parameters   Segment     Segment                 
         2    4.0078E+05  4.0078E+05  3.9421E+05

 ====> input item completed <==== 



 Closing file: ..\work\param.dat                                                             

 Continuing on file: delwaq.inp                                                                    

 Including file: \SOBEK212\FIXED\THOL2003.QWC                                                                                                                                                                                                                                                                                                                                                                                                                                                                                                                                                                                                                                                                                                                                                                                                                                                                                                                                                                                                            
  
 Input constant   nr:    1 is constant   nr:    2 with ID  : VWIND               
 Input constant   nr:    2 is constant   nr:    3 with ID  : WINDDIR             

 DATA grouped in    2 blocks of    1 values    
 Constant values in this block.
         2    0.0000E+00
         3    0.0000E+00

 ====> input item completed <==== 



 Closing file: \SOBEK212\FIXED\THOL2003.QWC                                                  

 Continuing on file: delwaq.inp                                                                    

 Including file: \SOBEK212\FIXED\THOL2003.QSC                                                                                                                                                                                                                                                                                                                                                                                                                                                                                                                                                                                                                                                                                                                                                                                                                                                                                                                                                                                                            
  
 Input constant   nr:    1 is constant   nr:    4 with ID  : TEMP                
 Input constant   nr:    2 is constant   nr:    5 with ID  : RAD                 

 DATA grouped in    2 blocks of    1 values    
 Constant values in this block.
         4    0.0000E+00
         5    0.0000E+00

 ====> input item completed <==== 



 Closing file: \SOBEK212\FIXED\THOL2003.QSC                                                  

 Continuing on file: delwaq.inp                                                                    

 Total number of constants        :    5

 Total number of parameters       :    2

 Total number of functions        :    0

 Total number of segment functions:    0

 *********************************************************** B L O C K - 7 *****


 Including file: ..\work\wq2.dat                                                                                                                                                                                                                                                                                                                                                                                                                                                                                                                                                                                                                                                                                                                                                                                                                                                                                                                                                                                                                         


 Option selected for initials    :   0

 Information from unformatted intermediate file.
 Filename is: ..\work\wqres.res                                                                                                                                                                                                                                              
 WARNING file does not exist.
 Filename: ..\work\wqres.res                                                                                                                                                                                                                                              

 Closing file: ..\work\wq2.dat                                                               

 Continuing on file: delwaq.inp                                                                    

 *********************************************************** B L O C K - 8 *****



 Option selected for output specification :   1
 Information from the standard input file.

 Specification of monitor output

 Default output for this file

 Specification of grid dump output

 No output for this file

 Specification of history output

 Including file: hisvar.dat                                                                                                                                                                                                                                                                                                                                                                                                                                                                                                                                                                                                                                                                                                                                                                                                                                                                                                                                                                                                                              

 All substances plus extra output variables

 Including file: \SOBEK212\THOLX.LIT\5\OUTPUT.DWQ                                                                                                                                                                                                                                                                                                                                                                                                                                                                                                                                                                                                                                                                                                                                                                                                                                                                                                                                                                                                        

 (      6) number of output variables specified

 Number           Identification        Weight variable
       1           Winddir               volume              
       2           Vwind                 volume              
       3           Temp                  volume              
       4           Rad                   volume              
       5           Volume                                    
       6           Surf                                      

 Specification of map output

 Closing file: \SOBEK212\THOLX.LIT\5\OUTPUT.DWQ                                              

 Continuing on file: hisvar.dat                                                                    

 Closing file: hisvar.dat                                                                    

 Continuing on file: delwaq.inp                                                                    

 Including file: mapvar.dat                                                                                                                                                                                                                                                                                                                                                                                                                                                                                                                                                                                                                                                                                                                                                                                                                                                                                                                                                                                                                              

 All substances plus extra output variables

 Including file: \SOBEK212\THOLX.LIT\5\OUTPUTM.DWQ                                                                                                                                                                                                                                                                                                                                                                                                                                                                                                                                                                                                                                                                                                                                                                                                                                                                                                                                                                                                       

 (      6) number of output variables specified

 Number           Identification 
       1           Winddir             
       2           Vwind               
       3           Temp                
       4           Rad                 
       5           Volume              
       6           Surf                

 Closing file: \SOBEK212\THOLX.LIT\5\OUTPUTM.DWQ                                             

 Continuing on file: mapvar.dat                                                                    

 Closing file: mapvar.dat                                                                    

 Continuing on file: delwaq.inp                                                                    

 Binary history file switched on

 Binary map file switched on

 NEFIS history file switched off

 NEFIS map file switched off

 NO BALANCE output : balance option not active !
 
  Determining the place of the output variables
 
        Winddir             ; Using constant nr           3
        Vwind               ; Using constant nr           2
        Temp                ; Using constant nr           4
        Rad                 ; Using constant nr           5
        Volume              ; Using DELWAQ VOLUME
   INFO:Surf                ; NOT FOUND, delwaq1p will detect variables from process library
        volume              ; Using DELWAQ VOLUME
        volume              ; Using DELWAQ VOLUME
        volume              ; Using DELWAQ VOLUME
        volume              ; Using DELWAQ VOLUME
        Winddir             ; Using constant nr           3
        Vwind               ; Using constant nr           2
        Temp                ; Using constant nr           4
        Rad                 ; Using constant nr           5
        Volume              ; Using DELWAQ VOLUME
   INFO:Surf                ; NOT FOUND, delwaq1p will detect variables from process library
  Not all variables available.
  Number off missing variables :           2

 *********************************************************** B L O C K - 9 *****


 Output operations
Number of periods defined:     0
 

 *********************************************************** B L O C K -10 *****



 Messages presented in this .lst file:

 Number of INFOrmative messages:  0
 Number of WARNINGS            :  0
 Number of ERRORS during input :  0
 


 Messages presented including .lsp file:

 Number of INFOrmative messages:  7
 Number of WARNINGS            :  1
 Number of ERRORS during input :  0
 total real    array space:     290962
 total integer array space:      51173
 total CHARACTER*20  space:       1721
 Execution stop : 2010/11/10 16:42:48 
