file-created-by  Deltares, D-Flow FM Version 1.2.0.53941M, Jul 12 2018, 20:37:00
file-creation-date  2019-02-21, 11:08:06                                        
task      full-coupling
geometry  unstructured
horizontal-aggregation no
reference-time              '20010101000000'
hydrodynamic-start-time     '20010101000000'
hydrodynamic-stop-time      '20010102000000'
hydrodynamic-timestep       '00000000120000'
conversion-ref-time         '20010101000000'
conversion-start-time       '20010101000000'
conversion-stop-time        '20010102000000'
conversion-timestep         '00000000120000'
grid-cells-first-direction                    2407
grid-cells-second-direction                      1
number-hydrodynamic-segments-per-layer        2407
number-hydrodynamic-layers                       1
number-water-quality-segments-per-layer       2407
number-water-quality-layers                      1
number-horizontal-exchanges                   4620
number-vertical-exchanges                        0
hydrodynamic-file           'FlowFM1'
aggregation-file            none
boundaries-file             'FlowFM1.bnd'
waqgeom-file                'FlowFM1_waqgeom.nc'
grid-indices-file           'FlowFM1.bnd'
grid-coordinates-file       'FlowFM1_waqgeom.nc'
volumes-file                'FlowFM1.vol'
areas-file                  'FlowFM1.are'
flows-file                  'FlowFM1.flo'
pointers-file               'FlowFM1.poi'
lengths-file                'FlowFM1.len'
salinity-file               'FlowFM1.sal'
temperature-file            'FlowFM1.tem'
vert-diffusion-file         none
horizontal-surfaces-file    'FlowFM1.srf'
surfaces-file               'FlowFM1.srfold'
shear-stresses-file         'FlowFM1.tau'
attributes-file             'FlowFM1.atr'
hydrodynamic-layers
       1.000000
end-hydrodynamic-layers
water-quality-layers   
       1.000000
end-water-quality-layers
sink-sources
         1        -1      1243       -999.000000       -999.000000       2550.000000       4250.000000  SourceSink01
         2        77      2286        150.000000       2750.000000       4750.000000       2750.000000  SourceSink02
end-sink-sources
