  Using options from ini file : delwaq.ini
 Delft3D-WAQ version  4.5212 17-06-2011
 Only to be used by DELTARES 373                            
 (c) Deltares
 Execution start: 2012/12/07 14:21:07 

 Parallel processing with   1 processor(s)

 total real      array space:       8057
 total integer   array space:       5008
 total character array space:       3981
 grand total in 4-byte words:      17046 =   0-GB   0-MB  68-KB 184-Byte.
1                    Water quality calculation Sobek-WQ      
                                                             

                                                             
                     T0: 2010.01.01 00:00:00  (scu=       1s)

                     Initialisation from system file completed.

 No process decomposition active
 partit: noseg,nolay=          24           1 , nseghr=          24
 partit: npart=  1, assigning all segments to part "npart", none to other parts
 
 CONSTANT ON UNIT:        22, READING: delwaq-dispersi.wrk                                                                                                                                                                                                                                            
 SIMULATION TIME :    0D  0H  0M  0S ! 
 TIME IN FILE    :    0D  0H  0M  0S ! 
 CONSTANT ON UNIT:        26, READING: ..\WORK\Length.dat                                                                                                                                                                                                                                             
 SIMULATION TIME :    0D  0H  0M  0S ! 
 TIME IN FILE    :    0D  0H  0M  0S ! 
  Closure error correction disabled
 
 Initialising numerical options for method 15...18
 
 Preconditioner switch not found, using default
 switch = 3, corrections based on lower and upper 
 
 Maximum number of iterations not found, using default
 Maximum number of iterations set to :   100
 Maximum number of vectors is:    28
 
 Relative tolerance not found, using default
 Relative tolerance set to :0.100E-06
 
 Scaling switch not found, using default
 switch = 1, scaling is switched on
 
 Iteration report switch found in input
 switch = 0, iteration report is switched off
 
 Extra functionality DLWQTR
 End extra functionality DLWQTR
1
                                             Water quality calculation Sobek-WQ      
                                                                                     
                                                                                     
                                             T0: 2010.01.01 00:00:00  (scu=       1s)
   0.00% Completed


 DUMP OF INTERMEDIATE RESULTS IN SELECTED SEGMENTS
  TIME =   0D  0H  0M  0S .
 
 TOTAL MASS IN SYSTEM 6.0929E+03 6.0929E+03 0.0000E+00 6.0929E+03 3.7915E+04
 CHANGES BY PROCESSES 0.0000E+00 0.0000E+00 0.0000E+00 0.0000E+00 0.0000E+00
 CHANGES BY LOADS     0.0000E+00 0.0000E+00 0.0000E+00 0.0000E+00 0.0000E+00
 BOUNDARY INFLOWS     0.0000E+00 0.0000E+00 0.0000E+00 0.0000E+00 0.0000E+00
 BOUNDARY OUTFLOWS    0.0000E+00 0.0000E+00 0.0000E+00 0.0000E+00 0.0000E+00
                      Continuity NH4        CBOD5      CBOD5_2    OXY        
                                                                             
 CONCENTRATION                           
 Start                1.0000E+00 1.0000E+00 0.0000E+00 1.0000E+00 5.5000E+00
 Upstream pipe        1.0000E+00 1.0000E+00 0.0000E+00 1.0000E+00 5.5000E+00
 Near pipe            1.0000E+00 1.0000E+00 0.0000E+00 1.0000E+00 5.5000E+00
 Far field            1.0000E+00 1.0000E+00 0.0000E+00 1.0000E+00 7.0000E+00
 SWT_Normal           1.0000E+00 1.0000E+00 0.0000E+00 1.0000E+00 5.5000E+00
 SWT_SWTType2         1.0000E+00 1.0000E+00 0.0000E+00 1.0000E+00 7.0000E+00
 MASS                                    
 Start                2.9422E+02 2.9422E+02 0.0000E+00 2.9422E+02 1.6182E+03
 Upstream pipe        2.8915E+02 2.8915E+02 0.0000E+00 2.8915E+02 1.5903E+03
 Near pipe            2.8920E+02 2.8920E+02 0.0000E+00 2.8920E+02 1.5906E+03
 Far field            3.0906E+02 3.0906E+02 0.0000E+00 3.0906E+02 2.1634E+03
 SWT_Normal           3.1569E+03 3.1569E+03 0.0000E+00 3.1569E+03 1.7363E+04
 SWT_SWTType2         2.9360E+03 2.9360E+03 0.0000E+00 2.9360E+03 2.0552E+04
 PROCESSES                               
 Start                0.0000E+00 0.0000E+00 0.0000E+00 0.0000E+00 0.0000E+00
 Upstream pipe        0.0000E+00 0.0000E+00 0.0000E+00 0.0000E+00 0.0000E+00
 Near pipe            0.0000E+00 0.0000E+00 0.0000E+00 0.0000E+00 0.0000E+00
 Far field            0.0000E+00 0.0000E+00 0.0000E+00 0.0000E+00 0.0000E+00
 SWT_Normal           0.0000E+00 0.0000E+00 0.0000E+00 0.0000E+00 0.0000E+00
 SWT_SWTType2         0.0000E+00 0.0000E+00 0.0000E+00 0.0000E+00 0.0000E+00
 LOADS ( IN )                            
 Start                0.0000E+00 0.0000E+00 0.0000E+00 0.0000E+00 0.0000E+00
 Upstream pipe        0.0000E+00 0.0000E+00 0.0000E+00 0.0000E+00 0.0000E+00
 Near pipe            0.0000E+00 0.0000E+00 0.0000E+00 0.0000E+00 0.0000E+00
 Far field            0.0000E+00 0.0000E+00 0.0000E+00 0.0000E+00 0.0000E+00
 SWT_Normal           0.0000E+00 0.0000E+00 0.0000E+00 0.0000E+00 0.0000E+00
 SWT_SWTType2         0.0000E+00 0.0000E+00 0.0000E+00 0.0000E+00 0.0000E+00
 LOADS ( OUT )                           
 Start                0.0000E+00 0.0000E+00 0.0000E+00 0.0000E+00 0.0000E+00
 Upstream pipe        0.0000E+00 0.0000E+00 0.0000E+00 0.0000E+00 0.0000E+00
 Near pipe            0.0000E+00 0.0000E+00 0.0000E+00 0.0000E+00 0.0000E+00
 Far field            0.0000E+00 0.0000E+00 0.0000E+00 0.0000E+00 0.0000E+00
 SWT_Normal           0.0000E+00 0.0000E+00 0.0000E+00 0.0000E+00 0.0000E+00
 SWT_SWTType2         0.0000E+00 0.0000E+00 0.0000E+00 0.0000E+00 0.0000E+00
 TRANSPORT ( IN )                        
 Start                0.0000E+00 0.0000E+00 0.0000E+00 0.0000E+00 0.0000E+00
 Upstream pipe        0.0000E+00 0.0000E+00 0.0000E+00 0.0000E+00 0.0000E+00
 Near pipe            0.0000E+00 0.0000E+00 0.0000E+00 0.0000E+00 0.0000E+00
 Far field            0.0000E+00 0.0000E+00 0.0000E+00 0.0000E+00 0.0000E+00
 SWT_Normal           0.0000E+00 0.0000E+00 0.0000E+00 0.0000E+00 0.0000E+00
 SWT_SWTType2         0.0000E+00 0.0000E+00 0.0000E+00 0.0000E+00 0.0000E+00
 TRANSPORT ( OUT )                       
 Start                0.0000E+00 0.0000E+00 0.0000E+00 0.0000E+00 0.0000E+00
 Upstream pipe        0.0000E+00 0.0000E+00 0.0000E+00 0.0000E+00 0.0000E+00
 Near pipe            0.0000E+00 0.0000E+00 0.0000E+00 0.0000E+00 0.0000E+00
 Far field            0.0000E+00 0.0000E+00 0.0000E+00 0.0000E+00 0.0000E+00
 SWT_Normal           0.0000E+00 0.0000E+00 0.0000E+00 0.0000E+00 0.0000E+00
 SWT_SWTType2         0.0000E+00 0.0000E+00 0.0000E+00 0.0000E+00 0.0000E+00
 
   0.69% Completed


 DUMP OF INTERMEDIATE RESULTS IN SELECTED SEGMENTS
  TIME =   0D  1H  0M  0S .
 
 TOTAL MASS IN SYSTEM 4.7003E+03 4.6833E+03 7.3812E-03 4.6402E+03 2.8280E+04
 CHANGES BY PROCESSES 0.0000E+00-1.8538E+01-7.2784E-05-6.6010E+01 3.4709E+02
 CHANGES BY LOADS     0.0000E+00 0.0000E+00 0.0000E+00 0.0000E+00 0.0000E+00
 BOUNDARY INFLOWS     1.5092E+02 1.5092E+02 2.7534E-03 1.5092E+02 8.3006E+02
 BOUNDARY OUTFLOWS    1.5436E+03 1.5420E+03 1.3641E-07 1.5376E+03 1.0812E+04
                      Continuity NH4        CBOD5      CBOD5_2    OXY        
                                                                             
 CONCENTRATION                           
 Start                1.0000E+00 9.9666E-01 1.1044E-06 9.8860E-01 5.5917E+00
 Upstream pipe        1.0000E+00 9.9635E-01 1.9489E-06 9.8772E-01 5.5970E+00
 Near pipe            1.0000E+00 9.9633E-01 2.4885E-06 9.8743E-01 5.6019E+00
 Far field            1.0000E+00 9.9632E-01 4.2610E-07 9.8339E-01 7.0284E+00
 SWT_Normal           9.9999E-01 9.9640E-01 1.9681E-06 9.8797E-01 5.6292E+00
 SWT_SWTType2         1.0000E+00 9.9632E-01 7.1828E-07 9.8559E-01 6.8468E+00
 MASS                                    
 Start                2.9911E+02 2.9811E+02 3.3034E-04 2.9570E+02 1.6725E+03
 Upstream pipe        2.9390E+02 2.9283E+02 5.7277E-04 2.9029E+02 1.6450E+03
 Near pipe            2.9390E+02 2.9282E+02 7.3136E-04 2.9020E+02 1.6464E+03
 Far field            1.0313E+02 1.0275E+02 4.3944E-05 1.0142E+02 7.2485E+02
 SWT_Normal           3.2046E+03 3.1931E+03 6.3069E-03 3.1661E+03 1.8040E+04
 SWT_SWTType2         1.4957E+03 1.4902E+03 1.0743E-03 1.4741E+03 1.0241E+04
 PROCESSES                               
 Start                0.0000E+00-1.0963E+00-4.2587E-06-3.7611E+00 3.0470E+01
 Upstream pipe        0.0000E+00-1.0773E+00-6.0003E-06-3.6955E+00 2.9935E+01
 Near pipe            0.0000E+00-1.0774E+00-6.7168E-06-3.6951E+00 2.9894E+01
 Far field            0.0000E+00-5.5407E-01-8.8906E-08-2.3699E+00 3.6951E+00
 SWT_Normal           0.0000E+00-1.1750E+01-6.1381E-05-3.9396E+01 3.0609E+02
 SWT_SWTType2         0.0000E+00-6.7878E+00-1.1403E-05-2.6614E+01 4.1007E+01
 LOADS ( IN )                            
 Start                0.0000E+00 0.0000E+00 0.0000E+00 0.0000E+00 0.0000E+00
 Upstream pipe        0.0000E+00 0.0000E+00 0.0000E+00 0.0000E+00 0.0000E+00
 Near pipe            0.0000E+00 0.0000E+00 0.0000E+00 0.0000E+00 0.0000E+00
 Far field            0.0000E+00 0.0000E+00 0.0000E+00 0.0000E+00 0.0000E+00
 SWT_Normal           0.0000E+00 0.0000E+00 0.0000E+00 0.0000E+00 0.0000E+00
 SWT_SWTType2         0.0000E+00 0.0000E+00 0.0000E+00 0.0000E+00 0.0000E+00
 LOADS ( OUT )                           
 Start                0.0000E+00 0.0000E+00 0.0000E+00 0.0000E+00 0.0000E+00
 Upstream pipe        0.0000E+00 0.0000E+00 0.0000E+00 0.0000E+00 0.0000E+00
 Near pipe            0.0000E+00 0.0000E+00 0.0000E+00 0.0000E+00 0.0000E+00
 Far field            0.0000E+00 0.0000E+00 0.0000E+00 0.0000E+00 0.0000E+00
 SWT_Normal           0.0000E+00 0.0000E+00 0.0000E+00 0.0000E+00 0.0000E+00
 SWT_SWTType2         0.0000E+00 0.0000E+00 0.0000E+00 0.0000E+00 0.0000E+00
 TRANSPORT ( IN )                        
 Start                1.4847E+02 1.4832E+02 0.0000E+00 1.4796E+02 8.2073E+02
 Upstream pipe        1.3592E+02 1.3565E+02 1.6801E-04 1.3511E+02 7.5348E+02
 Near pipe            1.2644E+02 1.2617E+02 1.6134E-04 1.2552E+02 7.0280E+02
 Far field            1.2346E+03 1.2333E+03 5.6825E-05 1.2296E+03 8.6480E+03
 SWT_Normal           1.5092E+02 1.5092E+02 0.0000E+00 1.5092E+02 8.3006E+02
 SWT_SWTType2         1.0313E+02 1.0288E+02 3.0820E-03 1.0226E+02 4.5903E+02
 TRANSPORT ( OUT )                       
 Start                1.4358E+02 1.4333E+02 1.4426E-04 1.4272E+02 7.9686E+02
 Upstream pipe        1.3117E+02 1.3090E+02 1.7022E-04 1.3027E+02 7.2876E+02
 Near pipe            1.2174E+02 1.2148E+02 1.9628E-04 1.2083E+02 6.7691E+02
 Far field            1.4405E+03 1.4390E+03 2.0141E-04 1.4349E+03 1.0090E+04
 SWT_Normal           1.0321E+02 1.0296E+02 3.2872E-04 1.0234E+02 4.5949E+02
 SWT_SWTType2         1.5435E+03 1.5419E+03 0.0000E+00 1.5375E+03 1.0812E+04
 
   1.38% Completed


 DUMP OF INTERMEDIATE RESULTS IN SELECTED SEGMENTS
  TIME =   0D  2H  0M  0S .
 
 TOTAL MASS IN SYSTEM 4.7195E+03 4.6873E+03 1.0398E-02 4.6075E+03 2.8204E+04
 CHANGES BY PROCESSES 0.0000E+00-1.7238E+01-1.7636E-04-6.1690E+01 3.4593E+02
 CHANGES BY LOADS     0.0000E+00 0.0000E+00 0.0000E+00 0.0000E+00 0.0000E+00
 BOUNDARY INFLOWS     3.6293E+02 3.6293E+02 0.0000E+00 3.6293E+02 1.9961E+03
 BOUNDARY OUTFLOWS    3.4375E+02 3.4163E+02 2.4172E-04 3.3398E+02 2.4182E+03
                      Continuity NH4        CBOD5      CBOD5_2    OXY        
                                                                             
 CONCENTRATION                           
 Start                1.0000E+00 9.9569E-01 8.4444E-07 9.8536E-01 5.6156E+00
 Upstream pipe        1.0000E+00 9.9335E-01 2.6195E-06 9.7806E-01 5.6664E+00
 Near pipe            1.0000E+00 9.9279E-01 3.3811E-06 9.7571E-01 5.6899E+00
 Far field            1.0000E+00 9.9266E-01 1.2884E-06 9.6677E-01 7.0089E+00
 SWT_Normal           9.9999E-01 9.9344E-01 2.6894E-06 9.7820E-01 5.6913E+00
 SWT_SWTType2         1.0000E+00 9.9266E-01 1.1839E-06 9.7222E-01 6.5731E+00
 MASS                                    
 Start                2.9884E+02 2.9755E+02 2.5235E-04 2.9447E+02 1.6782E+03
 Upstream pipe        2.9328E+02 2.9133E+02 7.6824E-04 2.8684E+02 1.6618E+03
 Near pipe            2.9292E+02 2.9081E+02 9.9039E-04 2.8580E+02 1.6667E+03
 Far field            1.0489E+02 1.0412E+02 1.3514E-04 1.0141E+02 7.3517E+02
 SWT_Normal           3.1954E+03 3.1744E+03 8.5935E-03 3.1257E+03 1.8186E+04
 SWT_SWTType2         1.5241E+03 1.5129E+03 1.8043E-03 1.4818E+03 1.0018E+04
 PROCESSES                               
 Start                0.0000E+00-1.0964E+00-6.6190E-06-3.7345E+00 2.9196E+01
 Upstream pipe        0.0000E+00-1.0759E+00-1.4172E-05-3.6587E+00 2.8384E+01
 Near pipe            0.0000E+00-1.0753E+00-1.7285E-05-3.6541E+00 2.8156E+01
 Far field            0.0000E+00-3.7958E-01-2.8549E-06-1.8450E+00 3.4186E+00
 SWT_Normal           0.0000E+00-1.1730E+01-1.4752E-04-3.8995E+01 2.8685E+02
 SWT_SWTType2         0.0000E+00-5.5081E+00-2.8834E-05-2.2694E+01 5.9078E+01
 LOADS ( IN )                            
 Start                0.0000E+00 0.0000E+00 0.0000E+00 0.0000E+00 0.0000E+00
 Upstream pipe        0.0000E+00 0.0000E+00 0.0000E+00 0.0000E+00 0.0000E+00
 Near pipe            0.0000E+00 0.0000E+00 0.0000E+00 0.0000E+00 0.0000E+00
 Far field            0.0000E+00 0.0000E+00 0.0000E+00 0.0000E+00 0.0000E+00
 SWT_Normal           0.0000E+00 0.0000E+00 0.0000E+00 0.0000E+00 0.0000E+00
 SWT_SWTType2         0.0000E+00 0.0000E+00 0.0000E+00 0.0000E+00 0.0000E+00
 LOADS ( OUT )                           
 Start                0.0000E+00 0.0000E+00 0.0000E+00 0.0000E+00 0.0000E+00
 Upstream pipe        0.0000E+00 0.0000E+00 0.0000E+00 0.0000E+00 0.0000E+00
 Near pipe            0.0000E+00 0.0000E+00 0.0000E+00 0.0000E+00 0.0000E+00
 Far field            0.0000E+00 0.0000E+00 0.0000E+00 0.0000E+00 0.0000E+00
 SWT_Normal           0.0000E+00 0.0000E+00 0.0000E+00 0.0000E+00 0.0000E+00
 SWT_SWTType2         0.0000E+00 0.0000E+00 0.0000E+00 0.0000E+00 0.0000E+00
 TRANSPORT ( IN )                        
 Start                3.6301E+02 3.6240E+02 3.5866E-05 3.6090E+02 2.0136E+03
 Upstream pipe        3.6404E+02 3.6214E+02 7.1229E-04 3.5798E+02 2.0509E+03
 Near pipe            3.6546E+02 3.6326E+02 1.0233E-03 3.5812E+02 2.0668E+03
 Far field            3.4602E+02 3.4389E+02 4.9715E-04 3.3636E+02 2.4267E+03
 SWT_Normal           3.6293E+02 3.6293E+02 0.0000E+00 3.6293E+02 1.9961E+03
 SWT_SWTType2         3.7211E+02 3.6981E+02 1.1897E-03 3.6425E+02 2.1362E+03
 TRANSPORT ( OUT )                       
 Start                3.6328E+02 3.6186E+02 2.2981E-04 3.5840E+02 2.0371E+03
 Upstream pipe        3.6466E+02 3.6256E+02 9.8771E-04 3.5777E+02 2.0624E+03
 Near pipe            3.6644E+02 3.6420E+02 1.1929E-03 3.5886E+02 2.0746E+03
 Far field            3.4427E+02 3.4214E+02 5.1380E-04 3.3453E+02 2.4198E+03
 SWT_Normal           3.7218E+02 3.6987E+02 1.1899E-03 3.6431E+02 2.1366E+03
 SWT_SWTType2         3.4368E+02 3.4156E+02 2.4154E-04 3.3392E+02 2.4178E+03
 
1
                                             Water quality calculation Sobek-WQ      
                                                                                     
                                                                                     
                                             T0: 2010.01.01 00:00:00  (scu=       1s)
   2.07% Completed


 DUMP OF INTERMEDIATE RESULTS IN SELECTED SEGMENTS
  TIME =   0D  3H  0M  0S .
 
 TOTAL MASS IN SYSTEM 4.7901E+03 4.7499E+03 1.0025E+01 4.6578E+03 2.7908E+04
 CHANGES BY PROCESSES 0.0000E+00-1.7333E+01-2.1816E-02-6.1593E+01 3.9170E+02
 CHANGES BY LOADS     0.0000E+00 0.0000E+00 0.0000E+00 0.0000E+00 0.0000E+00
 BOUNDARY INFLOWS     9.4642E+02 9.4717E+02 1.0109E+01 9.5299E+02 5.2055E+03
 BOUNDARY OUTFLOWS    8.7575E+02 8.6727E+02 7.1957E-02 8.4105E+02 5.8928E+03
                      Continuity NH4        CBOD5      CBOD5_2    OXY        
                                                                             
 CONCENTRATION                           
 Start                1.0000E+00 9.9785E-01 9.8022E-08 9.9266E-01 5.5582E+00
 Upstream pipe        1.0000E+00 9.9429E-01 1.0938E-06 9.8113E-01 5.6426E+00
 Near pipe            1.0000E+00 9.9180E-01 2.1216E-06 9.7269E-01 5.7072E+00
 Far field            1.0000E+00 9.8906E-01 3.6334E-04 9.5843E-01 6.4506E+00
 SWT_Normal           9.9999E-01 9.9273E-01 1.3965E-03 9.7663E-01 5.6865E+00
 SWT_SWTType2         1.0000E+00 9.8939E-01 3.4477E-03 9.6409E-01 6.0980E+00
 MASS                                    
 Start                2.9793E+02 2.9729E+02 2.9204E-05 2.9575E+02 1.6560E+03
 Upstream pipe        2.9118E+02 2.8952E+02 3.1850E-04 2.8568E+02 1.6430E+03
 Near pipe            2.8960E+02 2.8722E+02 6.1440E-04 2.8169E+02 1.6528E+03
 Far field            1.1208E+02 1.1085E+02 4.0722E-02 1.0742E+02 7.2297E+02
 SWT_Normal           3.1639E+03 3.1409E+03 4.4185E+00 3.0900E+03 1.7991E+04
 SWT_SWTType2         1.6263E+03 1.6090E+03 5.6069E+00 1.5679E+03 9.9168E+03
 PROCESSES                               
 Start                0.0000E+00-1.0953E+00-2.8149E-06-3.7384E+00 2.9523E+01
 Upstream pipe        0.0000E+00-1.0699E+00-1.1142E-05-3.6288E+00 2.7666E+01
 Near pipe            0.0000E+00-1.0655E+00-1.5849E-05-3.6034E+00 2.6897E+01
 Far field            0.0000E+00-3.9155E-01-4.4774E-05-1.8585E+00 5.9511E+00
 SWT_Normal           0.0000E+00-1.1640E+01-1.1774E-02-3.8566E+01 2.8029E+02
 SWT_SWTType2         0.0000E+00-5.6929E+00-1.0042E-02-2.3027E+01 1.1141E+02
 LOADS ( IN )                            
 Start                0.0000E+00 0.0000E+00 0.0000E+00 0.0000E+00 0.0000E+00
 Upstream pipe        0.0000E+00 0.0000E+00 0.0000E+00 0.0000E+00 0.0000E+00
 Near pipe            0.0000E+00 0.0000E+00 0.0000E+00 0.0000E+00 0.0000E+00
 Far field            0.0000E+00 0.0000E+00 0.0000E+00 0.0000E+00 0.0000E+00
 SWT_Normal           0.0000E+00 0.0000E+00 0.0000E+00 0.0000E+00 0.0000E+00
 SWT_SWTType2         0.0000E+00 0.0000E+00 0.0000E+00 0.0000E+00 0.0000E+00
 LOADS ( OUT )                           
 Start                0.0000E+00 0.0000E+00 0.0000E+00 0.0000E+00 0.0000E+00
 Upstream pipe        0.0000E+00 0.0000E+00 0.0000E+00 0.0000E+00 0.0000E+00
 Near pipe            0.0000E+00 0.0000E+00 0.0000E+00 0.0000E+00 0.0000E+00
 Far field            0.0000E+00 0.0000E+00 0.0000E+00 0.0000E+00 0.0000E+00
 SWT_Normal           0.0000E+00 0.0000E+00 0.0000E+00 0.0000E+00 0.0000E+00
 SWT_SWTType2         0.0000E+00 0.0000E+00 0.0000E+00 0.0000E+00 0.0000E+00
 TRANSPORT ( IN )                        
 Start                9.4655E+02 9.4578E+02 4.6700E-05 9.4393E+02 5.2270E+03
 Upstream pipe        9.5003E+02 9.4545E+02 9.3329E-04 9.3504E+02 5.3384E+03
 Near pipe            9.5484E+02 9.4782E+02 1.9993E-03 9.3154E+02 5.4283E+03
 Far field            8.8540E+02 8.7684E+02 1.2919E-01 8.5176E+02 5.8601E+03
 SWT_Normal           9.4642E+02 9.4717E+02 1.0109E+01 9.5299E+02 5.2055E+03
 SWT_SWTType2         9.7790E+02 9.6905E+02 5.6876E+00 9.5017E+02 5.6802E+03
 TRANSPORT ( OUT )                       
 Start                9.4745E+02 9.4495E+02 2.1501E-04 9.3891E+02 5.2788E+03
 Upstream pipe        9.5213E+02 9.4619E+02 1.5520E-03 9.3257E+02 5.3849E+03
 Near pipe            9.5816E+02 9.5034E+02 2.2402E-03 9.3205E+02 5.4691E+03
 Far field            8.7822E+02 8.6972E+02 8.8630E-02 8.4389E+02 5.8783E+03
 SWT_Normal           9.7790E+02 9.6906E+02 5.6876E+00 9.5018E+02 5.6803E+03
 SWT_SWTType2         8.7574E+02 8.6727E+02 7.1957E-02 8.4105E+02 5.8928E+03
 
   2.76% Completed


 DUMP OF INTERMEDIATE RESULTS IN SELECTED SEGMENTS
  TIME =   0D  4H  0M  0S .
 
 TOTAL MASS IN SYSTEM 4.8540E+03 4.8200E+03 6.6583E+01 4.7669E+03 2.7750E+04
 CHANGES BY PROCESSES 0.0000E+00-1.7604E+01-6.0045E-01-6.2586E+01 4.6059E+02
 CHANGES BY LOADS     0.0000E+00 0.0000E+00 0.0000E+00 0.0000E+00 0.0000E+00
 BOUNDARY INFLOWS     1.5925E+03 1.5976E+03 6.8926E+01 1.6373E+03 8.7598E+03
 BOUNDARY OUTFLOWS    1.5286E+03 1.5099E+03 1.1768E+01 1.4656E+03 9.3790E+03
                      Continuity NH4        CBOD5      CBOD5_2    OXY        
                                                                             
 CONCENTRATION                           
 Start                1.0000E+00 9.9892E-01 6.1161E-07 9.9628E-01 5.5302E+00
 Upstream pipe        1.0000E+00 9.9678E-01 8.6002E-07 9.8933E-01 5.5814E+00
 Near pipe            1.0000E+00 9.9478E-01 2.4162E-06 9.8260E-01 5.6328E+00
 Far field            1.0000E+00 9.8780E-01 1.7264E-02 9.6369E-01 5.9734E+00
 SWT_Normal           9.9999E-01 9.9456E-01 4.6141E-03 9.8415E-01 5.6390E+00
 SWT_SWTType2         1.0000E+00 9.9017E-01 3.0147E-02 9.7826E-01 5.8572E+00
 MASS                                    
 Start                2.9679E+02 2.9647E+02 1.8152E-04 2.9569E+02 1.6413E+03
 Upstream pipe        2.8851E+02 2.8758E+02 2.4812E-04 2.8543E+02 1.6103E+03
 Near pipe            2.8535E+02 2.8386E+02 6.8946E-04 2.8038E+02 1.6073E+03
 Far field            1.2149E+02 1.2001E+02 2.0975E+00 1.1708E+02 7.2573E+02
 SWT_Normal           3.1235E+03 3.1065E+03 1.4412E+01 3.0740E+03 1.7613E+04
 SWT_SWTType2         1.7305E+03 1.7135E+03 5.2171E+01 1.6929E+03 1.0136E+04
 PROCESSES                               
 Start                0.0000E+00-1.0934E+00-7.3345E-07-3.7526E+00 3.0389E+01
 Upstream pipe        0.0000E+00-1.0629E+00-3.6338E-06-3.6322E+00 2.8526E+01
 Near pipe            0.0000E+00-1.0519E+00-1.0221E-05-3.5813E+00 2.7314E+01
 Far field            0.0000E+00-4.2280E-01-1.3298E-02-1.9439E+00 1.3719E+01
 SWT_Normal           0.0000E+00-1.1507E+01-1.6447E-01-3.8360E+01 2.8440E+02
 SWT_SWTType2         0.0000E+00-6.0971E+00-4.3597E-01-2.4226E+01 1.7620E+02
 LOADS ( IN )                            
 Start                0.0000E+00 0.0000E+00 0.0000E+00 0.0000E+00 0.0000E+00
 Upstream pipe        0.0000E+00 0.0000E+00 0.0000E+00 0.0000E+00 0.0000E+00
 Near pipe            0.0000E+00 0.0000E+00 0.0000E+00 0.0000E+00 0.0000E+00
 Far field            0.0000E+00 0.0000E+00 0.0000E+00 0.0000E+00 0.0000E+00
 SWT_Normal           0.0000E+00 0.0000E+00 0.0000E+00 0.0000E+00 0.0000E+00
 SWT_SWTType2         0.0000E+00 0.0000E+00 0.0000E+00 0.0000E+00 0.0000E+00
 LOADS ( OUT )                           
 Start                0.0000E+00 0.0000E+00 0.0000E+00 0.0000E+00 0.0000E+00
 Upstream pipe        0.0000E+00 0.0000E+00 0.0000E+00 0.0000E+00 0.0000E+00
 Near pipe            0.0000E+00 0.0000E+00 0.0000E+00 0.0000E+00 0.0000E+00
 Far field            0.0000E+00 0.0000E+00 0.0000E+00 0.0000E+00 0.0000E+00
 SWT_Normal           0.0000E+00 0.0000E+00 0.0000E+00 0.0000E+00 0.0000E+00
 SWT_SWTType2         0.0000E+00 0.0000E+00 0.0000E+00 0.0000E+00 0.0000E+00
 TRANSPORT ( IN )                        
 Start                1.5917E+03 1.5911E+03 3.3981E-06 1.5896E+03 8.7714E+03
 Upstream pipe        1.5961E+03 1.5916E+03 7.0521E-04 1.5822E+03 8.8901E+03
 Near pipe            1.6022E+03 1.5940E+03 1.4139E-03 1.5750E+03 9.0192E+03
 Far field            1.5414E+03 1.5230E+03 1.4776E+01 1.4817E+03 9.3546E+03
 SWT_Normal           1.5925E+03 1.5976E+03 6.8926E+01 1.6373E+03 8.7598E+03
 SWT_SWTType2         1.6329E+03 1.6206E+03 5.8767E+01 1.6149E+03 9.4221E+03
 TRANSPORT ( OUT )                       
 Start                1.5928E+03 1.5908E+03 3.6294E-04 1.5859E+03 8.8165E+03
 Upstream pipe        1.5988E+03 1.5925E+03 9.6205E-04 1.5789E+03 8.9513E+03
 Near pipe            1.6065E+03 1.5963E+03 7.0764E-04 1.5727E+03 9.0920E+03
 Far field            1.5320E+03 1.5134E+03 1.2706E+01 1.4701E+03 9.3655E+03
 SWT_Normal           1.6329E+03 1.6206E+03 5.8767E+01 1.6149E+03 9.4221E+03
 SWT_SWTType2         1.5286E+03 1.5099E+03 1.1768E+01 1.4656E+03 9.3790E+03
 
   3.45% Completed


 DUMP OF INTERMEDIATE RESULTS IN SELECTED SEGMENTS
  TIME =   0D  5H  0M  0S .
 
 TOTAL MASS IN SYSTEM 4.8718E+03 4.8489E+03 1.1619E+02 4.8417E+03 2.7598E+04
 CHANGES BY PROCESSES 0.0000E+00-1.7802E+01-1.8087E+00-6.3932E+01 4.9628E+02
 CHANGES BY LOADS     0.0000E+00 0.0000E+00 0.0000E+00 0.0000E+00 0.0000E+00
 BOUNDARY INFLOWS     1.9316E+03 1.9404E+03 1.1846E+02 2.0086E+03 1.0626E+04
 BOUNDARY OUTFLOWS    1.9137E+03 1.8938E+03 6.7058E+01 1.8698E+03 1.1274E+04
                      Continuity NH4        CBOD5      CBOD5_2    OXY        
                                                                             
 CONCENTRATION                           
 Start                1.0000E+00 9.9910E-01 1.5895E-06 9.9691E-01 5.5252E+00
 Upstream pipe        1.0000E+00 9.9763E-01 3.2472E-06 9.9210E-01 5.5616E+00
 Near pipe            1.0000E+00 9.9633E-01 5.5166E-06 9.8771E-01 5.5957E+00
 Far field            1.0000E+00 9.9158E-01 4.7587E-02 9.8899E-01 5.8371E+00
 SWT_Normal           9.9999E-01 9.9572E-01 6.0482E-03 9.8868E-01 5.6113E+00
 SWT_SWTType2         1.0000E+00 9.9449E-01 5.5351E-02 1.0029E+00 5.7592E+00
 MASS                                    
 Start                2.9649E+02 2.9622E+02 4.7128E-04 2.9557E+02 1.6382E+03
 Upstream pipe        2.8779E+02 2.8711E+02 9.3451E-04 2.8552E+02 1.6006E+03
 Near pipe            2.8421E+02 2.8317E+02 1.5679E-03 2.8072E+02 1.5904E+03
 Far field            1.2448E+02 1.2343E+02 5.9237E+00 1.2311E+02 7.2661E+02
 SWT_Normal           3.1128E+03 3.0995E+03 1.8827E+01 3.0776E+03 1.7467E+04
 SWT_SWTType2         1.7591E+03 1.7494E+03 9.7366E+01 1.7642E+03 1.0131E+04
 PROCESSES                               
 Start                0.0000E+00-1.0909E+00-6.2447E-06-3.7527E+00 3.0652E+01
 Upstream pipe        0.0000E+00-1.0575E+00-9.3742E-06-3.6353E+00 2.9217E+01
 Near pipe            0.0000E+00-1.0431E+00-2.0174E-05-3.5841E+00 2.8336E+01
 Far field            0.0000E+00-4.4911E-01-8.6710E-02-2.0524E+00 1.7782E+01
 SWT_Normal           0.0000E+00-1.1417E+01-3.1158E-01-3.8369E+01 2.9154E+02
 SWT_SWTType2         0.0000E+00-6.3850E+00-1.4971E+00-2.5562E+01 2.0473E+02
 LOADS ( IN )                            
 Start                0.0000E+00 0.0000E+00 0.0000E+00 0.0000E+00 0.0000E+00
 Upstream pipe        0.0000E+00 0.0000E+00 0.0000E+00 0.0000E+00 0.0000E+00
 Near pipe            0.0000E+00 0.0000E+00 0.0000E+00 0.0000E+00 0.0000E+00
 Far field            0.0000E+00 0.0000E+00 0.0000E+00 0.0000E+00 0.0000E+00
 SWT_Normal           0.0000E+00 0.0000E+00 0.0000E+00 0.0000E+00 0.0000E+00
 SWT_SWTType2         0.0000E+00 0.0000E+00 0.0000E+00 0.0000E+00 0.0000E+00
 LOADS ( OUT )                           
 Start                0.0000E+00 0.0000E+00 0.0000E+00 0.0000E+00 0.0000E+00
 Upstream pipe        0.0000E+00 0.0000E+00 0.0000E+00 0.0000E+00 0.0000E+00
 Near pipe            0.0000E+00 0.0000E+00 0.0000E+00 0.0000E+00 0.0000E+00
 Far field            0.0000E+00 0.0000E+00 0.0000E+00 0.0000E+00 0.0000E+00
 SWT_Normal           0.0000E+00 0.0000E+00 0.0000E+00 0.0000E+00 0.0000E+00
 SWT_SWTType2         0.0000E+00 0.0000E+00 0.0000E+00 0.0000E+00 0.0000E+00
 TRANSPORT ( IN )                        
 Start                1.9297E+03 1.9291E+03 0.0000E+00 1.9278E+03 1.0629E+04
 Upstream pipe        1.9309E+03 1.9275E+03 3.2829E-03 1.9203E+03 1.0712E+04
 Near pipe            1.9325E+03 1.9261E+03 5.6197E-03 1.9112E+03 1.0793E+04
 Far field            1.9178E+03 1.8992E+03 7.2831E+01 1.8815E+03 1.1246E+04
 SWT_Normal           1.9316E+03 1.9404E+03 1.1846E+02 2.0086E+03 1.0626E+04
 SWT_SWTType2         1.9422E+03 1.9360E+03 1.1375E+02 1.9666E+03 1.1064E+04
 TRANSPORT ( OUT )                       
 Start                1.9300E+03 1.9283E+03 2.4695E-03 1.9241E+03 1.0663E+04
 Upstream pipe        1.9316E+03 1.9269E+03 4.0479E-03 1.9165E+03 1.0751E+04
 Near pipe            1.9336E+03 1.9258E+03 4.7435E-03 1.9073E+03 1.0838E+04
 Far field            1.9148E+03 1.8954E+03 6.8919E+01 1.8734E+03 1.1263E+04
 SWT_Normal           1.9422E+03 1.9360E+03 1.1375E+02 1.9666E+03 1.1064E+04
 SWT_SWTType2         1.9137E+03 1.8938E+03 6.7058E+01 1.8698E+03 1.1274E+04
 
1
                                             Water quality calculation Sobek-WQ      
                                                                                     
                                                                                     
                                             T0: 2010.01.01 00:00:00  (scu=       1s)
   4.14% Completed


 DUMP OF INTERMEDIATE RESULTS IN SELECTED SEGMENTS
  TIME =   0D  6H  0M  0S .
 
 TOTAL MASS IN SYSTEM 4.8644E+03 4.8448E+03 1.2550E+02 4.8496E+03 2.7486E+04
 CHANGES BY PROCESSES 0.0000E+00-1.7855E+01-2.4850E+00-6.4595E+01 5.0958E+02
 CHANGES BY LOADS     0.0000E+00 0.0000E+00 0.0000E+00 0.0000E+00 0.0000E+00
 BOUNDARY INFLOWS     1.8832E+03 1.8920E+03 1.1777E+02 1.9597E+03 1.0359E+04
 BOUNDARY OUTFLOWS    1.8907E+03 1.8782E+03 1.0600E+02 1.8873E+03 1.0981E+04
                      Continuity NH4        CBOD5      CBOD5_2    OXY        
                                                                             
 CONCENTRATION                           
 Start                1.0000E+00 9.9902E-01 1.5164E-06 9.9666E-01 5.5271E+00
 Upstream pipe        1.0000E+00 9.9753E-01 3.7970E-06 9.9182E-01 5.5633E+00
 Near pipe            1.0000E+00 9.9643E-01 6.8541E-06 9.8801E-01 5.5939E+00
 Far field            1.0000E+00 9.9466E-01 6.0367E-02 1.0042E+00 5.7846E+00
 SWT_Normal           9.9999E-01 9.9565E-01 5.9837E-03 9.8851E-01 5.6112E+00
 SWT_SWTType2         1.0000E+00 9.9658E-01 6.1642E-02 1.0122E+00 5.7215E+00
 MASS                                    
 Start                2.9704E+02 2.9675E+02 4.5042E-04 2.9605E+02 1.6418E+03
 Upstream pipe        2.8908E+02 2.8837E+02 1.0976E-03 2.8671E+02 1.6082E+03
 Near pipe            2.8627E+02 2.8525E+02 1.9622E-03 2.8284E+02 1.6014E+03
 Far field            1.2171E+02 1.2106E+02 7.3469E+00 1.2221E+02 7.0402E+02
 SWT_Normal           3.1325E+03 3.1189E+03 1.8744E+01 3.0966E+03 1.7577E+04
 SWT_SWTType2         1.7318E+03 1.7259E+03 1.0675E+02 1.7530E+03 9.9086E+03
 PROCESSES                               
 Start                0.0000E+00-1.0913E+00-8.7948E-06-3.7540E+00 3.0680E+01
 Upstream pipe        0.0000E+00-1.0587E+00-1.9784E-05-3.6417E+00 2.9386E+01
 Near pipe            0.0000E+00-1.0452E+00-3.2327E-05-3.5969E+00 2.8695E+01
 Far field            0.0000E+00-4.5215E-01-1.5392E-01-2.1059E+00 1.8989E+01
 SWT_Normal           0.0000E+00-1.1437E+01-3.5556E-01-3.8490E+01 2.9439E+02
 SWT_SWTType2         0.0000E+00-6.4188E+00-2.1295E+00-2.6105E+01 2.1519E+02
 LOADS ( IN )                            
 Start                0.0000E+00 0.0000E+00 0.0000E+00 0.0000E+00 0.0000E+00
 Upstream pipe        0.0000E+00 0.0000E+00 0.0000E+00 0.0000E+00 0.0000E+00
 Near pipe            0.0000E+00 0.0000E+00 0.0000E+00 0.0000E+00 0.0000E+00
 Far field            0.0000E+00 0.0000E+00 0.0000E+00 0.0000E+00 0.0000E+00
 SWT_Normal           0.0000E+00 0.0000E+00 0.0000E+00 0.0000E+00 0.0000E+00
 SWT_SWTType2         0.0000E+00 0.0000E+00 0.0000E+00 0.0000E+00 0.0000E+00
 LOADS ( OUT )                           
 Start                0.0000E+00 0.0000E+00 0.0000E+00 0.0000E+00 0.0000E+00
 Upstream pipe        0.0000E+00 0.0000E+00 0.0000E+00 0.0000E+00 0.0000E+00
 Near pipe            0.0000E+00 0.0000E+00 0.0000E+00 0.0000E+00 0.0000E+00
 Far field            0.0000E+00 0.0000E+00 0.0000E+00 0.0000E+00 0.0000E+00
 SWT_Normal           0.0000E+00 0.0000E+00 0.0000E+00 0.0000E+00 0.0000E+00
 SWT_SWTType2         0.0000E+00 0.0000E+00 0.0000E+00 0.0000E+00 0.0000E+00
 TRANSPORT ( IN )                        
 Start                1.8810E+03 1.8805E+03 4.3285E-08 1.8792E+03 1.0361E+04
 Upstream pipe        1.8789E+03 1.8755E+03 4.3137E-03 1.8678E+03 1.0419E+04
 Near pipe            1.8760E+03 1.8705E+03 7.0197E-03 1.8577E+03 1.0460E+04
 Far field            1.8869E+03 1.8757E+03 1.0838E+02 1.8894E+03 1.0921E+04
 SWT_Normal           1.8832E+03 1.8920E+03 1.1777E+02 1.9597E+03 1.0359E+04
 SWT_SWTType2         1.8634E+03 1.8611E+03 1.1751E+02 1.9023E+03 1.0543E+04
 TRANSPORT ( OUT )                       
 Start                1.8805E+03 1.8789E+03 2.8627E-03 1.8749E+03 1.0388E+04
 Upstream pipe        1.8776E+03 1.8732E+03 7.1040E-03 1.8630E+03 1.0441E+04
 Near pipe            1.8739E+03 1.8674E+03 7.3070E-03 1.8520E+03 1.0478E+04
 Far field            1.8897E+03 1.8776E+03 1.0680E+02 1.8882E+03 1.0962E+04
 SWT_Normal           1.8634E+03 1.8611E+03 1.1751E+02 1.9023E+03 1.0543E+04
 SWT_SWTType2         1.8907E+03 1.8782E+03 1.0600E+02 1.8873E+03 1.0981E+04
 
   4.83% Completed


 DUMP OF INTERMEDIATE RESULTS IN SELECTED SEGMENTS
  TIME =   0D  7H  0M  0S .
 
 TOTAL MASS IN SYSTEM 4.8378E+03 4.8154E+03 1.1125E+02 4.8078E+03 2.7383E+04
 CHANGES BY PROCESSES 0.0000E+00-1.7799E+01-2.4563E+00-6.4415E+01 5.0947E+02
 CHANGES BY LOADS     0.0000E+00 0.0000E+00 0.0000E+00 0.0000E+00 0.0000E+00
 BOUNDARY INFLOWS     1.5985E+03 1.6050E+03 8.6191E+01 1.6546E+03 8.7934E+03
 BOUNDARY OUTFLOWS    1.6251E+03 1.6167E+03 9.7992E+01 1.6319E+03 9.4057E+03
                      Continuity NH4        CBOD5      CBOD5_2    OXY        
                                                                             
 CONCENTRATION                           
 Start                1.0000E+00 9.9882E-01 1.1019E-06 9.9597E-01 5.5325E+00
 Upstream pipe        1.0000E+00 9.9715E-01 3.0536E-06 9.9057E-01 5.5727E+00
 Near pipe            1.0000E+00 9.9593E-01 8.2212E-06 9.8639E-01 5.6061E+00
 Far field            1.0000E+00 9.9483E-01 5.8915E-02 1.0036E+00 5.7869E+00
 SWT_Normal           9.9999E-01 9.9498E-01 5.2241E-03 9.8608E-01 5.6242E+00
 SWT_SWTType2         1.0000E+00 9.9606E-01 5.6441E-02 1.0083E+00 5.7279E+00
 MASS                                    
 Start                2.9781E+02 2.9745E+02 3.2815E-04 2.9661E+02 1.6476E+03
 Upstream pipe        2.9085E+02 2.9002E+02 8.8814E-04 2.8810E+02 1.6208E+03
 Near pipe            2.8908E+02 2.8790E+02 2.3765E-03 2.8514E+02 1.6206E+03
 Far field            1.1669E+02 1.1609E+02 6.8748E+00 1.1711E+02 6.7527E+02
 SWT_Normal           3.1591E+03 3.1433E+03 1.6504E+01 3.1152E+03 1.7768E+04
 SWT_SWTType2         1.6787E+03 1.6721E+03 9.4748E+01 1.6926E+03 9.6155E+03
 PROCESSES                               
 Start                0.0000E+00-1.0937E+00-7.4583E-06-3.7587E+00 3.0644E+01
 Upstream pipe        0.0000E+00-1.0644E+00-1.8898E-05-3.6537E+00 2.9355E+01
 Near pipe            0.0000E+00-1.0545E+00-3.9182E-05-3.6176E+00 2.8697E+01
 Far field            0.0000E+00-4.3833E-01-1.6710E-01-2.0799E+00 1.9105E+01
 SWT_Normal           0.0000E+00-1.1523E+01-3.3227E-01-3.8659E+01 2.9408E+02
 SWT_SWTType2         0.0000E+00-6.2762E+00-2.1241E+00-2.5756E+01 2.1539E+02
 LOADS ( IN )                            
 Start                0.0000E+00 0.0000E+00 0.0000E+00 0.0000E+00 0.0000E+00
 Upstream pipe        0.0000E+00 0.0000E+00 0.0000E+00 0.0000E+00 0.0000E+00
 Near pipe            0.0000E+00 0.0000E+00 0.0000E+00 0.0000E+00 0.0000E+00
 Far field            0.0000E+00 0.0000E+00 0.0000E+00 0.0000E+00 0.0000E+00
 SWT_Normal           0.0000E+00 0.0000E+00 0.0000E+00 0.0000E+00 0.0000E+00
 SWT_SWTType2         0.0000E+00 0.0000E+00 0.0000E+00 0.0000E+00 0.0000E+00
 LOADS ( OUT )                           
 Start                0.0000E+00 0.0000E+00 0.0000E+00 0.0000E+00 0.0000E+00
 Upstream pipe        0.0000E+00 0.0000E+00 0.0000E+00 0.0000E+00 0.0000E+00
 Near pipe            0.0000E+00 0.0000E+00 0.0000E+00 0.0000E+00 0.0000E+00
 Far field            0.0000E+00 0.0000E+00 0.0000E+00 0.0000E+00 0.0000E+00
 SWT_Normal           0.0000E+00 0.0000E+00 0.0000E+00 0.0000E+00 0.0000E+00
 SWT_SWTType2         0.0000E+00 0.0000E+00 0.0000E+00 0.0000E+00 0.0000E+00
 TRANSPORT ( IN )                        
 Start                1.5968E+03 1.5963E+03 2.3920E-06 1.5950E+03 8.7977E+03
 Upstream pipe        1.5939E+03 1.5907E+03 3.2297E-03 1.5835E+03 8.8456E+03
 Near pipe            1.5899E+03 1.5848E+03 5.4924E-03 1.5730E+03 8.8755E+03
 Far field            1.6182E+03 1.6105E+03 9.7593E+01 1.6281E+03 9.3380E+03
 SWT_Normal           1.5985E+03 1.6050E+03 8.6191E+01 1.6546E+03 8.7934E+03
 SWT_SWTType2         1.5720E+03 1.5691E+03 8.8107E+01 1.5973E+03 8.8972E+03
 TRANSPORT ( OUT )                       
 Start                1.5961E+03 1.5945E+03 1.9269E-03 1.5907E+03 8.8225E+03
 Upstream pipe        1.5921E+03 1.5880E+03 5.3644E-03 1.5785E+03 8.8624E+03
 Near pipe            1.5871E+03 1.5811E+03 5.5916E-03 1.5671E+03 8.8850E+03
 Far field            1.6232E+03 1.6150E+03 9.7899E+01 1.6311E+03 9.3858E+03
 SWT_Normal           1.5720E+03 1.5691E+03 8.8107E+01 1.5973E+03 8.8972E+03
 SWT_SWTType2         1.6251E+03 1.6167E+03 9.7992E+01 1.6319E+03 9.4057E+03
 
   5.52% Completed


 DUMP OF INTERMEDIATE RESULTS IN SELECTED SEGMENTS
  TIME =   0D  8H  0M  0S .
 
 TOTAL MASS IN SYSTEM 4.8067E+03 4.7869E+03 2.0229E+02 4.8221E+03 2.7312E+04
 CHANGES BY PROCESSES 0.0000E+00-1.7680E+01-2.6643E+00-6.4005E+01 5.0132E+02
 CHANGES BY LOADS     0.0000E+00 0.0000E+00 0.0000E+00 0.0000E+00 0.0000E+00
 BOUNDARY INFLOWS     1.2801E+03 1.2929E+03 1.7002E+02 1.3907E+03 7.0436E+03
 BOUNDARY OUTFLOWS    1.3113E+03 1.3037E+03 7.6315E+01 1.3123E+03 7.6166E+03
                      Continuity NH4        CBOD5      CBOD5_2    OXY        
                                                                             
 CONCENTRATION                           
 Start                1.0000E+00 9.9851E-01 8.7794E-07 9.9495E-01 5.5405E+00
 Upstream pipe        1.0000E+00 9.9654E-01 2.3873E-06 9.8858E-01 5.5876E+00
 Near pipe            1.0000E+00 9.9513E-01 1.6677E-05 9.8372E-01 5.6262E+00
 Far field            1.0000E+00 9.9420E-01 6.2483E-02 1.0024E+00 5.8181E+00
 SWT_Normal           9.9999E-01 9.9494E-01 1.6760E-02 9.9072E-01 5.6442E+00
 SWT_SWTType2         1.0000E+00 9.9769E-01 9.1420E-02 1.0275E+00 5.7556E+00
 MASS                                    
 Start                2.9831E+02 2.9786E+02 2.6190E-04 2.9680E+02 1.6528E+03
 Upstream pipe        2.9200E+02 2.9099E+02 6.9710E-04 2.8866E+02 1.6316E+03
 Near pipe            2.9089E+02 2.8947E+02 4.8511E-03 2.8615E+02 1.6366E+03
 Far field            1.1256E+02 1.1191E+02 7.0333E+00 1.1283E+02 6.5491E+02
 SWT_Normal           3.1762E+03 3.1602E+03 5.3235E+01 3.1468E+03 1.7927E+04
 SWT_SWTType2         1.6304E+03 1.6267E+03 1.4906E+02 1.6753E+03 9.3843E+03
 PROCESSES                               
 Start                0.0000E+00-1.0959E+00-3.9588E-06-3.7616E+00 3.0548E+01
 Upstream pipe        0.0000E+00-1.0695E+00-1.2130E-05-3.6618E+00 2.9198E+01
 Near pipe            0.0000E+00-1.0627E+00-5.2498E-05-3.6319E+00 2.8503E+01
 Far field            0.0000E+00-4.2051E-01-1.5503E-01-2.0199E+00 1.8619E+01
 SWT_Normal           0.0000E+00-1.1601E+01-5.0507E-01-3.8849E+01 2.9165E+02
 SWT_SWTType2         0.0000E+00-6.0795E+00-2.1592E+00-2.5156E+01 2.0967E+02
 LOADS ( IN )                            
 Start                0.0000E+00 0.0000E+00 0.0000E+00 0.0000E+00 0.0000E+00
 Upstream pipe        0.0000E+00 0.0000E+00 0.0000E+00 0.0000E+00 0.0000E+00
 Near pipe            0.0000E+00 0.0000E+00 0.0000E+00 0.0000E+00 0.0000E+00
 Far field            0.0000E+00 0.0000E+00 0.0000E+00 0.0000E+00 0.0000E+00
 SWT_Normal           0.0000E+00 0.0000E+00 0.0000E+00 0.0000E+00 0.0000E+00
 SWT_SWTType2         0.0000E+00 0.0000E+00 0.0000E+00 0.0000E+00 0.0000E+00
 LOADS ( OUT )                           
 Start                0.0000E+00 0.0000E+00 0.0000E+00 0.0000E+00 0.0000E+00
 Upstream pipe        0.0000E+00 0.0000E+00 0.0000E+00 0.0000E+00 0.0000E+00
 Near pipe            0.0000E+00 0.0000E+00 0.0000E+00 0.0000E+00 0.0000E+00
 Far field            0.0000E+00 0.0000E+00 0.0000E+00 0.0000E+00 0.0000E+00
 SWT_Normal           0.0000E+00 0.0000E+00 0.0000E+00 0.0000E+00 0.0000E+00
 SWT_SWTType2         0.0000E+00 0.0000E+00 0.0000E+00 0.0000E+00 0.0000E+00
 TRANSPORT ( IN )                        
 Start                1.2771E+03 1.2766E+03 9.9458E-06 1.2753E+03 7.0392E+03
 Upstream pipe        1.2752E+03 1.2722E+03 1.5777E-03 1.2653E+03 7.0888E+03
 Near pipe            1.2726E+03 1.2678E+03 3.3234E-03 1.2567E+03 7.1227E+03
 Far field            1.3057E+03 1.2986E+03 7.6759E+01 1.3095E+03 7.5615E+03
 SWT_Normal           1.2801E+03 1.2929E+03 1.7002E+02 1.3907E+03 7.0436E+03
 SWT_SWTType2         1.2630E+03 1.2644E+03 1.3278E+02 1.3202E+03 7.1757E+03
 TRANSPORT ( OUT )                       
 Start                1.2766E+03 1.2751E+03 7.6059E-04 1.2714E+03 7.0646E+03
 Upstream pipe        1.2741E+03 1.2701E+03 2.5673E-03 1.2611E+03 7.1073E+03
 Near pipe            1.2708E+03 1.2652E+03 1.1225E-03 1.2520E+03 7.1353E+03
 Far field            1.3098E+03 1.3024E+03 7.6445E+01 1.3117E+03 7.6005E+03
 SWT_Normal           1.2630E+03 1.2644E+03 1.3278E+02 1.3202E+03 7.1757E+03
 SWT_SWTType2         1.3113E+03 1.3037E+03 7.6315E+01 1.3123E+03 7.6166E+03
 
1
                                             Water quality calculation Sobek-WQ      
                                                                                     
                                                                                     
                                             T0: 2010.01.01 00:00:00  (scu=       1s)
   6.21% Completed


 DUMP OF INTERMEDIATE RESULTS IN SELECTED SEGMENTS
  TIME =   0D  9H  0M  0S .
 
 TOTAL MASS IN SYSTEM 4.7851E+03 4.7809E+03 4.7602E+02 4.9624E+03 2.7310E+04
 CHANGES BY PROCESSES 0.0000E+00-1.7607E+01-6.0340E+00-6.5003E+01 4.8785E+02
 CHANGES BY LOADS     0.0000E+00 0.0000E+00 0.0000E+00 0.0000E+00 0.0000E+00
 BOUNDARY INFLOWS     1.0636E+03 1.0920E+03 3.7904E+02 1.3100E+03 5.8562E+03
 BOUNDARY OUTFLOWS    1.0852E+03 1.0804E+03 9.9278E+01 1.1046E+03 6.3451E+03
                      Continuity NH4        CBOD5      CBOD5_2    OXY        
                                                                             
 CONCENTRATION                           
 Start                1.0000E+00 9.9821E-01 9.5410E-07 9.9395E-01 5.5483E+00
 Upstream pipe        1.0000E+00 9.9590E-01 3.2960E-06 9.8649E-01 5.6031E+00
 Near pipe            1.0000E+00 9.9424E-01 6.5167E-05 9.8081E-01 5.6480E+00
 Far field            1.0000E+00 9.9803E-01 1.3082E-01 1.0419E+00 5.8584E+00
 SWT_Normal           9.9999E-01 9.9563E-01 3.8858E-02 1.0020E+00 5.6657E+00
 SWT_SWTType2         1.0000E+00 1.0061E+00 2.1997E-01 1.1068E+00 5.7903E+00
 MASS                                    
 Start                2.9852E+02 2.9799E+02 2.8482E-04 2.9672E+02 1.6563E+03
 Upstream pipe        2.9248E+02 2.9128E+02 9.6402E-04 2.8853E+02 1.6388E+03
 Near pipe            2.9165E+02 2.8997E+02 1.9006E-02 2.8605E+02 1.6472E+03
 Far field            1.1026E+02 1.1004E+02 1.4425E+01 1.1488E+02 6.4595E+02
 SWT_Normal           3.1834E+03 3.1695E+03 1.2370E+02 3.1897E+03 1.8036E+04
 SWT_SWTType2         1.6017E+03 1.6114E+03 3.5232E+02 1.7727E+03 9.2742E+03
 PROCESSES                               
 Start                0.0000E+00-1.0970E+00-5.2159E-06-3.7611E+00 3.0412E+01
 Upstream pipe        0.0000E+00-1.0720E+00-1.4940E-05-3.6620E+00 2.8951E+01
 Near pipe            0.0000E+00-1.0668E+00-1.7509E-04-3.6339E+00 2.8171E+01
 Far field            0.0000E+00-4.0832E-01-2.2026E-01-2.0065E+00 1.7919E+01
 SWT_Normal           0.0000E+00-1.1652E+01-1.4985E+00-3.9290E+01 2.8722E+02
 SWT_SWTType2         0.0000E+00-5.9553E+00-4.5355E+00-2.5712E+01 2.0063E+02
 LOADS ( IN )                            
 Start                0.0000E+00 0.0000E+00 0.0000E+00 0.0000E+00 0.0000E+00
 Upstream pipe        0.0000E+00 0.0000E+00 0.0000E+00 0.0000E+00 0.0000E+00
 Near pipe            0.0000E+00 0.0000E+00 0.0000E+00 0.0000E+00 0.0000E+00
 Far field            0.0000E+00 0.0000E+00 0.0000E+00 0.0000E+00 0.0000E+00
 SWT_Normal           0.0000E+00 0.0000E+00 0.0000E+00 0.0000E+00 0.0000E+00
 SWT_SWTType2         0.0000E+00 0.0000E+00 0.0000E+00 0.0000E+00 0.0000E+00
 LOADS ( OUT )                           
 Start                0.0000E+00 0.0000E+00 0.0000E+00 0.0000E+00 0.0000E+00
 Upstream pipe        0.0000E+00 0.0000E+00 0.0000E+00 0.0000E+00 0.0000E+00
 Near pipe            0.0000E+00 0.0000E+00 0.0000E+00 0.0000E+00 0.0000E+00
 Far field            0.0000E+00 0.0000E+00 0.0000E+00 0.0000E+00 0.0000E+00
 SWT_Normal           0.0000E+00 0.0000E+00 0.0000E+00 0.0000E+00 0.0000E+00
 SWT_SWTType2         0.0000E+00 0.0000E+00 0.0000E+00 0.0000E+00 0.0000E+00
 TRANSPORT ( IN )                        
 Start                1.0572E+03 1.0567E+03 0.0000E+00 1.0554E+03 5.8296E+03
 Upstream pipe        1.0564E+03 1.0534E+03 1.6084E-03 1.0466E+03 5.8843E+03
 Near pipe            1.0553E+03 1.0505E+03 1.3746E-02 1.0395E+03 5.9256E+03
 Far field            1.0821E+03 1.0785E+03 1.1041E+02 1.1108E+03 6.3068E+03
 SWT_Normal           1.0636E+03 1.0920E+03 3.7904E+02 1.3100E+03 5.8562E+03
 SWT_SWTType2         1.0564E+03 1.0711E+03 3.0708E+02 1.2278E+03 6.0344E+03
 TRANSPORT ( OUT )                       
 Start                1.0570E+03 1.0555E+03 8.9449E-04 1.0517E+03 5.8565E+03
 Upstream pipe        1.0559E+03 1.0520E+03 2.4615E-03 1.0430E+03 5.9060E+03
 Near pipe            1.0545E+03 1.0490E+03 0.0000E+00 1.0360E+03 5.9431E+03
 Far field            1.0844E+03 1.0800E+03 1.0280E+02 1.1068E+03 6.3337E+03
 SWT_Normal           1.0564E+03 1.0711E+03 3.0708E+02 1.2278E+03 6.0344E+03
 SWT_SWTType2         1.0852E+03 1.0804E+03 9.9278E+01 1.1046E+03 6.3451E+03
 
   6.90% Completed


 DUMP OF INTERMEDIATE RESULTS IN SELECTED SEGMENTS
  TIME =   0D 10H  0M  0S .
 
 TOTAL MASS IN SYSTEM 4.7815E+03 4.8019E+03 8.5769E+02 5.1937E+03 2.7388E+04
 CHANGES BY PROCESSES 0.0000E+00-1.7628E+01-1.2560E+01-6.7646E+01 4.7307E+02
 CHANGES BY LOADS     0.0000E+00 0.0000E+00 0.0000E+00 0.0000E+00 0.0000E+00
 BOUNDARY INFLOWS     9.9770E+02 1.0426E+03 5.9908E+02 1.3871E+03 5.4973E+03
 BOUNDARY OUTFLOWS    1.0013E+03 1.0041E+03 2.0485E+02 1.0882E+03 5.8926E+03
                      Continuity NH4        CBOD5      CBOD5_2    OXY        
                                                                             
 CONCENTRATION                           
 Start                1.0000E+00 9.9813E-01 7.0501E-07 9.9364E-01 5.5510E+00
 Upstream pipe        1.0000E+00 9.9549E-01 4.0489E-06 9.8528E-01 5.6107E+00
 Near pipe            1.0000E+00 9.9359E-01 1.5481E-04 9.7879E-01 5.6622E+00
 Far field            1.0000E+00 1.0082E+00 2.8092E-01 1.1355E+00 5.8915E+00
 SWT_Normal           9.9999E-01 9.9665E-01 6.2759E-02 1.0151E+00 5.6818E+00
 SWT_SWTType2         1.0000E+00 1.0194E+00 4.1151E-01 1.2278E+00 5.8199E+00
 MASS                                    
 Start                2.9850E+02 2.9795E+02 2.1045E-04 2.9661E+02 1.6570E+03
 Upstream pipe        2.9243E+02 2.9112E+02 1.1840E-03 2.8813E+02 1.6408E+03
 Near pipe            2.9156E+02 2.8969E+02 4.5137E-02 2.8538E+02 1.6509E+03
 Far field            1.1002E+02 1.1092E+02 3.0906E+01 1.2492E+02 6.4818E+02
 SWT_Normal           3.1826E+03 3.1720E+03 1.9974E+02 3.2307E+03 1.8083E+04
 SWT_SWTType2         1.5989E+03 1.6299E+03 6.5795E+02 1.9631E+03 9.3052E+03
 PROCESSES                               
 Start                0.0000E+00-1.0971E+00-4.8076E-06-3.7592E+00 3.0305E+01
 Upstream pipe        0.0000E+00-1.0723E+00-1.9561E-05-3.6575E+00 2.8728E+01
 Near pipe            0.0000E+00-1.0674E+00-5.4663E-04-3.6276E+00 2.7835E+01
 Far field            0.0000E+00-4.0575E-01-4.8615E-01-2.1124E+00 1.7179E+01
 SWT_Normal           0.0000E+00-1.1675E+01-2.8889E+00-3.9831E+01 2.8239E+02
 SWT_SWTType2         0.0000E+00-5.9523E+00-9.6708E+00-2.7815E+01 1.9069E+02
 LOADS ( IN )                            
 Start                0.0000E+00 0.0000E+00 0.0000E+00 0.0000E+00 0.0000E+00
 Upstream pipe        0.0000E+00 0.0000E+00 0.0000E+00 0.0000E+00 0.0000E+00
 Near pipe            0.0000E+00 0.0000E+00 0.0000E+00 0.0000E+00 0.0000E+00
 Far field            0.0000E+00 0.0000E+00 0.0000E+00 0.0000E+00 0.0000E+00
 SWT_Normal           0.0000E+00 0.0000E+00 0.0000E+00 0.0000E+00 0.0000E+00
 SWT_SWTType2         0.0000E+00 0.0000E+00 0.0000E+00 0.0000E+00 0.0000E+00
 LOADS ( OUT )                           
 Start                0.0000E+00 0.0000E+00 0.0000E+00 0.0000E+00 0.0000E+00
 Upstream pipe        0.0000E+00 0.0000E+00 0.0000E+00 0.0000E+00 0.0000E+00
 Near pipe            0.0000E+00 0.0000E+00 0.0000E+00 0.0000E+00 0.0000E+00
 Far field            0.0000E+00 0.0000E+00 0.0000E+00 0.0000E+00 0.0000E+00
 SWT_Normal           0.0000E+00 0.0000E+00 0.0000E+00 0.0000E+00 0.0000E+00
 SWT_SWTType2         0.0000E+00 0.0000E+00 0.0000E+00 0.0000E+00 0.0000E+00
 TRANSPORT ( IN )                        
 Start                9.8772E+02 9.8717E+02 4.9287E-06 9.8585E+02 5.4477E+03
 Upstream pipe        9.8779E+02 9.8481E+02 1.3164E-03 9.7800E+02 5.5093E+03
 Near pipe            9.8791E+02 9.8282E+02 2.7639E-02 9.7109E+02 5.5615E+03
 Far field            1.0009E+03 1.0060E+03 2.2990E+02 1.1062E+03 5.8705E+03
 SWT_Normal           9.9770E+02 1.0426E+03 5.9908E+02 1.3871E+03 5.4973E+03
 SWT_SWTType2         9.9848E+02 1.0285E+03 5.2015E+02 1.3063E+03 5.7330E+03
 TRANSPORT ( OUT )                       
 Start                9.8774E+02 9.8612E+02 6.7827E-04 9.8220E+02 5.4773E+03
 Upstream pipe        9.8784E+02 9.8391E+02 1.7223E-03 9.7475E+02 5.5360E+03
 Near pipe            9.8799E+02 9.8202E+02 1.2480E-03 9.6814E+02 5.5856E+03
 Far field            1.0012E+03 1.0047E+03 2.1293E+02 1.0940E+03 5.8854E+03
 SWT_Normal           9.9848E+02 1.0285E+03 5.2015E+02 1.3063E+03 5.7330E+03
 SWT_SWTType2         1.0013E+03 1.0041E+03 2.0485E+02 1.0882E+03 5.8926E+03
 
   7.59% Completed


 DUMP OF INTERMEDIATE RESULTS IN SELECTED SEGMENTS
  TIME =   0D 11H  0M  0S .
 
 TOTAL MASS IN SYSTEM 4.7933E+03 4.8411E+03 1.2484E+03 5.4536E+03 2.7496E+04
 CHANGES BY PROCESSES 0.0000E+00-1.7737E+01-2.0610E+01-7.1298E+01 4.6147E+02
 CHANGES BY LOADS     0.0000E+00 0.0000E+00 0.0000E+00 0.0000E+00 0.0000E+00
 BOUNDARY INFLOWS     1.0711E+03 1.1330E+03 8.2627E+02 1.6081E+03 5.9046E+03
 BOUNDARY OUTFLOWS    1.0592E+03 1.0761E+03 4.1495E+02 1.2770E+03 6.2582E+03
                      Continuity NH4        CBOD5      CBOD5_2    OXY        
                                                                             
 CONCENTRATION                           
 Start                1.0000E+00 9.9828E-01 2.3747E-07 9.9412E-01 5.5474E+00
 Upstream pipe        1.0000E+00 9.9565E-01 4.2017E-06 9.8569E-01 5.6084E+00
 Near pipe            1.0000E+00 9.9359E-01 2.0491E-04 9.7883E-01 5.6618E+00
 Far field            1.0000E+00 1.0233E+00 4.9008E-01 1.2697E+00 5.9063E+00
 SWT_Normal           9.9999E-01 9.9760E-01 7.9609E-02 1.0251E+00 5.6863E+00
 SWT_SWTType2         1.0000E+00 1.0342E+00 6.1556E-01 1.3588E+00 5.8343E+00
 MASS                                    
 Start                2.9832E+02 2.9781E+02 7.0841E-05 2.9656E+02 1.6549E+03
 Upstream pipe        2.9200E+02 2.9073E+02 1.2269E-03 2.8782E+02 1.6376E+03
 Near pipe            2.9087E+02 2.8901E+02 5.9602E-02 2.8471E+02 1.6468E+03
 Far field            1.1141E+02 1.1401E+02 5.4601E+01 1.4146E+02 6.5804E+02
 SWT_Normal           3.1760E+03 3.1684E+03 2.5284E+02 3.2559E+03 1.8060E+04
 SWT_SWTType2         1.6173E+03 1.6726E+03 9.9557E+02 2.1977E+03 9.4359E+03
 PROCESSES                               
 Start                0.0000E+00-1.0968E+00-2.8531E-06-3.7586E+00 3.0304E+01
 Upstream pipe        0.0000E+00-1.0713E+00-2.2941E-05-3.6537E+00 2.8660E+01
 Near pipe            0.0000E+00-1.0657E+00-9.8318E-04-3.6201E+00 2.7675E+01
 Far field            0.0000E+00-4.1259E-01-9.5215E-01-2.3396E+00 1.6561E+01
 SWT_Normal           0.0000E+00-1.1675E+01-4.1531E+00-4.0298E+01 2.7909E+02
 SWT_SWTType2         0.0000E+00-6.0616E+00-1.6457E+01-3.1000E+01 1.8238E+02
 LOADS ( IN )                            
 Start                0.0000E+00 0.0000E+00 0.0000E+00 0.0000E+00 0.0000E+00
 Upstream pipe        0.0000E+00 0.0000E+00 0.0000E+00 0.0000E+00 0.0000E+00
 Near pipe            0.0000E+00 0.0000E+00 0.0000E+00 0.0000E+00 0.0000E+00
 Far field            0.0000E+00 0.0000E+00 0.0000E+00 0.0000E+00 0.0000E+00
 SWT_Normal           0.0000E+00 0.0000E+00 0.0000E+00 0.0000E+00 0.0000E+00
 SWT_SWTType2         0.0000E+00 0.0000E+00 0.0000E+00 0.0000E+00 0.0000E+00
 LOADS ( OUT )                           
 Start                0.0000E+00 0.0000E+00 0.0000E+00 0.0000E+00 0.0000E+00
 Upstream pipe        0.0000E+00 0.0000E+00 0.0000E+00 0.0000E+00 0.0000E+00
 Near pipe            0.0000E+00 0.0000E+00 0.0000E+00 0.0000E+00 0.0000E+00
 Far field            0.0000E+00 0.0000E+00 0.0000E+00 0.0000E+00 0.0000E+00
 SWT_Normal           0.0000E+00 0.0000E+00 0.0000E+00 0.0000E+00 0.0000E+00
 SWT_SWTType2         0.0000E+00 0.0000E+00 0.0000E+00 0.0000E+00 0.0000E+00
 TRANSPORT ( IN )                        
 Start                1.0573E+03 1.0568E+03 1.2731E-05 1.0554E+03 5.8311E+03
 Upstream pipe        1.0581E+03 1.0550E+03 7.6734E-04 1.0481E+03 5.9020E+03
 Near pipe            1.0591E+03 1.0534E+03 1.6361E-02 1.0405E+03 5.9657E+03
 Far field            1.0611E+03 1.0811E+03 4.5148E+02 1.3048E+03 6.2470E+03
 SWT_Normal           1.0711E+03 1.1330E+03 8.2627E+02 1.6081E+03 5.9046E+03
 SWT_SWTType2         1.0776E+03 1.1249E+03 7.6902E+02 1.5426E+03 6.2065E+03
 TRANSPORT ( OUT )                       
 Start                1.0575E+03 1.0558E+03 3.3062E-04 1.0517E+03 5.8635E+03
 Upstream pipe        1.0585E+03 1.0543E+03 9.7038E-04 1.0447E+03 5.9338E+03
 Near pipe            1.0598E+03 1.0531E+03 8.5609E-04 1.0375E+03 5.9974E+03
 Far field            1.0597E+03 1.0776E+03 4.2684E+02 1.2859E+03 6.2537E+03
 SWT_Normal           1.0776E+03 1.1249E+03 7.6902E+02 1.5426E+03 6.2065E+03
 SWT_SWTType2         1.0592E+03 1.0761E+03 4.1495E+02 1.2770E+03 6.2582E+03
 
1
                                             Water quality calculation Sobek-WQ      
                                                                                     
                                                                                     
                                             T0: 2010.01.01 00:00:00  (scu=       1s)
   8.28% Completed


 DUMP OF INTERMEDIATE RESULTS IN SELECTED SEGMENTS
  TIME =   0D 12H  0M  0S .
 
 TOTAL MASS IN SYSTEM 4.8130E+03 4.8838E+03 1.5472E+03 5.6703E+03 2.7581E+04
 CHANGES BY PROCESSES 0.0000E+00-1.7891E+01-2.8013E+01-7.4929E+01 4.5612E+02
 CHANGES BY LOADS     0.0000E+00 0.0000E+00 0.0000E+00 0.0000E+00 0.0000E+00
 BOUNDARY INFLOWS     1.2305E+03 1.3098E+03 1.0579E+03 1.9181E+03 6.7853E+03
 BOUNDARY OUTFLOWS    1.2108E+03 1.2492E+03 7.3105E+02 1.6264E+03 7.1564E+03
                      Continuity NH4        CBOD5      CBOD5_2    OXY        
                                                                             
 CONCENTRATION                           
 Start                1.0000E+00 9.9852E-01 1.5092E-07 9.9494E-01 5.5409E+00
 Upstream pipe        1.0000E+00 9.9611E-01 3.1097E-06 9.8720E-01 5.5974E+00
 Near pipe            1.0000E+00 9.9417E-01 1.7310E-04 9.8069E-01 5.6482E+00
 Far field            1.0000E+00 1.0384E+00 6.8924E-01 1.4001E+00 5.8997E+00
 SWT_Normal           9.9999E-01 9.9836E-01 8.7724E-02 1.0310E+00 5.6796E+00
 SWT_SWTType2         1.0000E+00 1.0461E+00 7.7072E-01 1.4608E+00 5.8281E+00
 MASS                                    
 Start                2.9803E+02 2.9759E+02 4.4978E-05 2.9652E+02 1.6514E+03
 Upstream pipe        2.9132E+02 2.9019E+02 9.0592E-04 2.8760E+02 1.6307E+03
 Near pipe            2.8980E+02 2.8811E+02 5.0165E-02 2.8420E+02 1.6369E+03
 Far field            1.1380E+02 1.1816E+02 7.8433E+01 1.5933E+02 6.7136E+02
 SWT_Normal           3.1659E+03 3.1608E+03 2.7773E+02 3.2642E+03 1.7981E+04
 SWT_SWTType2         1.6471E+03 1.7231E+03 1.2695E+03 2.4061E+03 9.5998E+03
 PROCESSES                               
 Start                0.0000E+00-1.0962E+00-6.6062E-07-3.7590E+00 3.0391E+01
 Upstream pipe        0.0000E+00-1.0696E+00-2.0190E-05-3.6522E+00 2.8756E+01
 Near pipe            0.0000E+00-1.0627E+00-1.0542E-03-3.6155E+00 2.7760E+01
 Far field            0.0000E+00-4.2606E-01-1.5233E+00-2.6371E+00 1.6188E+01
 SWT_Normal           0.0000E+00-1.1655E+01-4.9059E+00-4.0557E+01 2.7839E+02
 SWT_SWTType2         0.0000E+00-6.2362E+00-2.3107E+01-3.4372E+01 1.7773E+02
 LOADS ( IN )                            
 Start                0.0000E+00 0.0000E+00 0.0000E+00 0.0000E+00 0.0000E+00
 Upstream pipe        0.0000E+00 0.0000E+00 0.0000E+00 0.0000E+00 0.0000E+00
 Near pipe            0.0000E+00 0.0000E+00 0.0000E+00 0.0000E+00 0.0000E+00
 Far field            0.0000E+00 0.0000E+00 0.0000E+00 0.0000E+00 0.0000E+00
 SWT_Normal           0.0000E+00 0.0000E+00 0.0000E+00 0.0000E+00 0.0000E+00
 SWT_SWTType2         0.0000E+00 0.0000E+00 0.0000E+00 0.0000E+00 0.0000E+00
 LOADS ( OUT )                           
 Start                0.0000E+00 0.0000E+00 0.0000E+00 0.0000E+00 0.0000E+00
 Upstream pipe        0.0000E+00 0.0000E+00 0.0000E+00 0.0000E+00 0.0000E+00
 Near pipe            0.0000E+00 0.0000E+00 0.0000E+00 0.0000E+00 0.0000E+00
 Far field            0.0000E+00 0.0000E+00 0.0000E+00 0.0000E+00 0.0000E+00
 SWT_Normal           0.0000E+00 0.0000E+00 0.0000E+00 0.0000E+00 0.0000E+00
 SWT_SWTType2         0.0000E+00 0.0000E+00 0.0000E+00 0.0000E+00 0.0000E+00
 TRANSPORT ( IN )                        
 Start                1.2129E+03 1.2124E+03 8.3066E-06 1.2110E+03 6.6871E+03
 Upstream pipe        1.2141E+03 1.2108E+03 3.2748E-04 1.2037E+03 6.7650E+03
 Near pipe            1.2156E+03 1.2096E+03 2.1187E-03 1.1957E+03 6.8376E+03
 Far field            1.2140E+03 1.2557E+03 7.6870E+02 1.6566E+03 7.1501E+03
 SWT_Normal           1.2305E+03 1.3098E+03 1.0579E+03 1.9181E+03 6.7853E+03
 SWT_SWTType2         1.2406E+03 1.3059E+03 1.0281E+03 1.8692E+03 7.1425E+03
 TRANSPORT ( OUT )                       
 Start                1.2132E+03 1.2115E+03 4.5468E-05 1.2073E+03 6.7211E+03
 Upstream pipe        1.2147E+03 1.2102E+03 7.1275E-04 1.2002E+03 6.8008E+03
 Near pipe            1.2167E+03 1.2094E+03 1.0313E-02 1.1926E+03 6.8753E+03
 Far field            1.2116E+03 1.2511E+03 7.4334E+02 1.6361E+03 7.1530E+03
 SWT_Normal           1.2406E+03 1.3059E+03 1.0281E+03 1.8692E+03 7.1425E+03
 SWT_SWTType2         1.2108E+03 1.2492E+03 7.3105E+02 1.6264E+03 7.1564E+03
 
   8.97% Completed


 DUMP OF INTERMEDIATE RESULTS IN SELECTED SEGMENTS
  TIME =   0D 13H  0M  0S .
 
 TOTAL MASS IN SYSTEM 4.8314E+03 4.9195E+03 1.7463E+03 5.8264E+03 2.7618E+04
 CHANGES BY PROCESSES 0.0000E+00-1.8039E+01-3.3235E+01-7.7695E+01 4.5714E+02
 CHANGES BY LOADS     0.0000E+00 0.0000E+00 0.0000E+00 0.0000E+00 0.0000E+00
 BOUNDARY INFLOWS     1.3994E+03 1.4961E+03 1.2894E+03 2.2375E+03 7.7184E+03
 BOUNDARY OUTFLOWS    1.3811E+03 1.4425E+03 1.0571E+03 2.0037E+03 8.1386E+03
                      Continuity NH4        CBOD5      CBOD5_2    OXY        
                                                                             
 CONCENTRATION                           
 Start                1.0000E+00 9.9872E-01 6.2748E-07 9.9560E-01 5.5357E+00
 Upstream pipe        1.0000E+00 9.9659E-01 2.8631E-06 9.8876E-01 5.5859E+00
 Near pipe            1.0000E+00 9.9488E-01 1.2444E-04 9.8300E-01 5.6311E+00
 Far field            1.0000E+00 1.0489E+00 8.1778E-01 1.4871E+00 5.8758E+00
 SWT_Normal           9.9999E-01 9.9909E-01 9.3215E-02 1.0358E+00 5.6689E+00
 SWT_SWTType2         1.0000E+00 1.0543E+00 8.6686E-01 1.5266E+00 5.8056E+00
 MASS                                    
 Start                2.9776E+02 2.9738E+02 1.8684E-04 2.9645E+02 1.6483E+03
 Upstream pipe        2.9069E+02 2.8970E+02 8.3228E-04 2.8743E+02 1.6238E+03
 Near pipe            2.8879E+02 2.8732E+02 3.5937E-02 2.8389E+02 1.6262E+03
 Far field            1.1624E+02 1.2193E+02 9.5061E+01 1.7286E+02 6.8302E+02
 SWT_Normal           3.1564E+03 3.1535E+03 2.9422E+02 3.2693E+03 1.7893E+04
 SWT_SWTType2         1.6750E+03 1.7660E+03 1.4520E+03 2.5571E+03 9.7247E+03
 PROCESSES                               
 Start                0.0000E+00-1.0954E+00-2.2602E-06-3.7594E+00 3.0493E+01
 Upstream pipe        0.0000E+00-1.0677E+00-1.6150E-05-3.6521E+00 2.8945E+01
 Near pipe            0.0000E+00-1.0595E+00-8.1126E-04-3.6139E+00 2.8010E+01
 Far field            0.0000E+00-4.4100E-01-2.0053E+00-2.9014E+00 1.6154E+01
 SWT_Normal           0.0000E+00-1.1626E+01-5.2740E+00-4.0675E+01 2.7960E+02
 SWT_SWTType2         0.0000E+00-6.4131E+00-2.7961E+01-3.7020E+01 1.7754E+02
 LOADS ( IN )                            
 Start                0.0000E+00 0.0000E+00 0.0000E+00 0.0000E+00 0.0000E+00
 Upstream pipe        0.0000E+00 0.0000E+00 0.0000E+00 0.0000E+00 0.0000E+00
 Near pipe            0.0000E+00 0.0000E+00 0.0000E+00 0.0000E+00 0.0000E+00
 Far field            0.0000E+00 0.0000E+00 0.0000E+00 0.0000E+00 0.0000E+00
 SWT_Normal           0.0000E+00 0.0000E+00 0.0000E+00 0.0000E+00 0.0000E+00
 SWT_SWTType2         0.0000E+00 0.0000E+00 0.0000E+00 0.0000E+00 0.0000E+00
 LOADS ( OUT )                           
 Start                0.0000E+00 0.0000E+00 0.0000E+00 0.0000E+00 0.0000E+00
 Upstream pipe        0.0000E+00 0.0000E+00 0.0000E+00 0.0000E+00 0.0000E+00
 Near pipe            0.0000E+00 0.0000E+00 0.0000E+00 0.0000E+00 0.0000E+00
 Far field            0.0000E+00 0.0000E+00 0.0000E+00 0.0000E+00 0.0000E+00
 SWT_Normal           0.0000E+00 0.0000E+00 0.0000E+00 0.0000E+00 0.0000E+00
 SWT_SWTType2         0.0000E+00 0.0000E+00 0.0000E+00 0.0000E+00 0.0000E+00
 TRANSPORT ( IN )                        
 Start                1.3780E+03 1.3775E+03 0.0000E+00 1.3761E+03 7.5950E+03
 Upstream pipe        1.3791E+03 1.3759E+03 1.0201E-03 1.3688E+03 7.6732E+03
 Near pipe            1.3805E+03 1.3745E+03 4.1094E-03 1.3605E+03 7.7463E+03
 Far field            1.3844E+03 1.4484E+03 1.0847E+03 2.0278E+03 8.1301E+03
 SWT_Normal           1.3994E+03 1.4961E+03 1.2894E+03 2.2375E+03 7.7184E+03
 SWT_SWTType2         1.4090E+03 1.4917E+03 1.2676E+03 2.1917E+03 8.0859E+03
 TRANSPORT ( OUT )                       
 Start                1.3783E+03 1.3766E+03 6.2429E-04 1.3724E+03 7.6285E+03
 Upstream pipe        1.3797E+03 1.3753E+03 1.5051E-03 1.3653E+03 7.7090E+03
 Near pipe            1.3815E+03 1.3742E+03 1.7649E-02 1.3572E+03 7.7849E+03
 Far field            1.3820E+03 1.4442E+03 1.0661E+03 2.0114E+03 8.1346E+03
 SWT_Normal           1.4090E+03 1.4917E+03 1.2676E+03 2.1917E+03 8.0859E+03
 SWT_SWTType2         1.3811E+03 1.4425E+03 1.0571E+03 2.0037E+03 8.1386E+03
 
   9.66% Completed


 DUMP OF INTERMEDIATE RESULTS IN SELECTED SEGMENTS
  TIME =   0D 14H  0M  0S .
 
 TOTAL MASS IN SYSTEM 4.8415E+03 4.9455E+03 1.9270E+03 5.9622E+03 2.7613E+04
 CHANGES BY PROCESSES 0.0000E+00-1.8156E+01-3.6975E+01-7.9747E+01 4.6061E+02
 CHANGES BY LOADS     0.0000E+00 0.0000E+00 0.0000E+00 0.0000E+00 0.0000E+00
 BOUNDARY INFLOWS     1.5088E+03 1.6224E+03 1.5142E+03 2.4930E+03 8.3236E+03
 BOUNDARY OUTFLOWS    1.4987E+03 1.5782E+03 1.2965E+03 2.2775E+03 8.7892E+03
                      Continuity NH4        CBOD5      CBOD5_2    OXY        
                                                                             
 CONCENTRATION                           
 Start                1.0000E+00 9.9881E-01 5.7098E-07 9.9591E-01 5.5333E+00
 Upstream pipe        1.0000E+00 9.9687E-01 2.3218E-06 9.8968E-01 5.5791E+00
 Near pipe            1.0000E+00 9.9536E-01 1.0086E-04 9.8455E-01 5.6197E+00
 Far field            1.0000E+00 1.0566E+00 9.0307E-01 1.5468E+00 5.8468E+00
 SWT_Normal           9.9999E-01 9.9990E-01 1.0181E-01 1.0420E+00 5.6619E+00
 SWT_SWTType2         1.0000E+00 1.0617E+00 9.5087E-01 1.5850E+00 5.7806E+00
 MASS                                    
 Start                2.9766E+02 2.9730E+02 1.6996E-04 2.9644E+02 1.6470E+03
 Upstream pipe        2.9043E+02 2.8953E+02 6.7432E-04 2.8744E+02 1.6204E+03
 Near pipe            2.8838E+02 2.8705E+02 2.9087E-02 2.8393E+02 1.6206E+03
 Far field            1.1749E+02 1.2413E+02 1.0610E+02 1.8173E+02 6.8692E+02
 SWT_Normal           3.1525E+03 3.1522E+03 3.2096E+02 3.2851E+03 1.7850E+04
 SWT_SWTType2         1.6890E+03 1.7933E+03 1.6060E+03 2.6770E+03 9.7636E+03
 PROCESSES                               
 Start                0.0000E+00-1.0947E+00-3.1650E-06-3.7594E+00 3.0560E+01
 Upstream pipe        0.0000E+00-1.0662E+00-1.3956E-05-3.6524E+00 2.9101E+01
 Near pipe            0.0000E+00-1.0572E+00-5.9887E-04-3.6143E+00 2.8254E+01
 Far field            0.0000E+00-4.5287E-01-2.3182E+00-3.0824E+00 1.6374E+01
 SWT_Normal           0.0000E+00-1.1607E+01-5.6439E+00-4.0818E+01 2.8095E+02
 SWT_SWTType2         0.0000E+00-6.5497E+00-3.1331E+01-3.8930E+01 1.7966E+02
 LOADS ( IN )                            
 Start                0.0000E+00 0.0000E+00 0.0000E+00 0.0000E+00 0.0000E+00
 Upstream pipe        0.0000E+00 0.0000E+00 0.0000E+00 0.0000E+00 0.0000E+00
 Near pipe            0.0000E+00 0.0000E+00 0.0000E+00 0.0000E+00 0.0000E+00
 Far field            0.0000E+00 0.0000E+00 0.0000E+00 0.0000E+00 0.0000E+00
 SWT_Normal           0.0000E+00 0.0000E+00 0.0000E+00 0.0000E+00 0.0000E+00
 SWT_SWTType2         0.0000E+00 0.0000E+00 0.0000E+00 0.0000E+00 0.0000E+00
 LOADS ( OUT )                           
 Start                0.0000E+00 0.0000E+00 0.0000E+00 0.0000E+00 0.0000E+00
 Upstream pipe        0.0000E+00 0.0000E+00 0.0000E+00 0.0000E+00 0.0000E+00
 Near pipe            0.0000E+00 0.0000E+00 0.0000E+00 0.0000E+00 0.0000E+00
 Far field            0.0000E+00 0.0000E+00 0.0000E+00 0.0000E+00 0.0000E+00
 SWT_Normal           0.0000E+00 0.0000E+00 0.0000E+00 0.0000E+00 0.0000E+00
 SWT_SWTType2         0.0000E+00 0.0000E+00 0.0000E+00 0.0000E+00 0.0000E+00
 TRANSPORT ( IN )                        
 Start                1.4836E+03 1.4830E+03 1.6392E-06 1.4817E+03 8.1754E+03
 Upstream pipe        1.4840E+03 1.4811E+03 1.3763E-03 1.4742E+03 8.2483E+03
 Near pipe            1.4846E+03 1.4788E+03 3.7409E-03 1.4653E+03 8.3140E+03
 Far field            1.5004E+03 1.5820E+03 1.3162E+03 2.2951E+03 8.7696E+03
 SWT_Normal           1.5088E+03 1.6224E+03 1.5142E+03 2.4930E+03 8.3236E+03
 SWT_SWTType2         1.5126E+03 1.6120E+03 1.4818E+03 2.4365E+03 8.6485E+03
 TRANSPORT ( OUT )                       
 Start                1.4837E+03 1.4820E+03 7.7067E-04 1.4779E+03 8.2073E+03
 Upstream pipe        1.4843E+03 1.4802E+03 1.9142E-03 1.4706E+03 8.2808E+03
 Near pipe            1.4850E+03 1.4780E+03 1.0017E-02 1.4616E+03 8.3478E+03
 Far field            1.4991E+03 1.5793E+03 1.3028E+03 2.2831E+03 8.7821E+03
 SWT_Normal           1.5126E+03 1.6120E+03 1.4818E+03 2.4365E+03 8.6485E+03
 SWT_SWTType2         1.4987E+03 1.5782E+03 1.2965E+03 2.2775E+03 8.7892E+03
 
1
                                             Water quality calculation Sobek-WQ      
                                                                                     
                                                                                     
                                             T0: 2010.01.01 00:00:00  (scu=       1s)
  10.34% Completed


 DUMP OF INTERMEDIATE RESULTS IN SELECTED SEGMENTS
  TIME =   0D 15H  0M  0S .
 
 TOTAL MASS IN SYSTEM 4.8417E+03 4.9642E+03 2.1596E+03 6.1174E+03 2.7586E+04
 CHANGES BY PROCESSES 0.0000E+00-1.8239E+01-4.0976E+01-8.1767E+01 4.6165E+02
 CHANGES BY LOADS     0.0000E+00 0.0000E+00 0.0000E+00 0.0000E+00 0.0000E+00
 BOUNDARY INFLOWS     1.5258E+03 1.6553E+03 1.7267E+03 2.6482E+03 8.4209E+03
 BOUNDARY OUTFLOWS    1.5257E+03 1.6184E+03 1.4532E+03 2.4112E+03 8.9098E+03
                      Continuity NH4        CBOD5      CBOD5_2    OXY        
                                                                             
 CONCENTRATION                           
 Start                1.0000E+00 9.9877E-01 8.1509E-07 9.9582E-01 5.5337E+00
 Upstream pipe        1.0000E+00 9.9693E-01 3.0364E-06 9.8983E-01 5.5783E+00
 Near pipe            1.0000E+00 9.9552E-01 1.0677E-04 9.8505E-01 5.6166E+00
 Far field            1.0000E+00 1.0648E+00 9.9899E-01 1.6125E+00 5.8268E+00
 SWT_Normal           9.9999E-01 1.0009E+00 1.1585E-01 1.0510E+00 5.6612E+00
 SWT_SWTType2         1.0000E+00 1.0710E+00 1.0636E+00 1.6609E+00 5.7654E+00
 MASS                                    
 Start                2.9773E+02 2.9736E+02 2.4267E-04 2.9648E+02 1.6475E+03
 Upstream pipe        2.9060E+02 2.8970E+02 8.8237E-04 2.8764E+02 1.6210E+03
 Near pipe            2.8864E+02 2.8735E+02 3.0818E-02 2.8432E+02 1.6212E+03
 Far field            1.1728E+02 1.2488E+02 1.1716E+02 1.8911E+02 6.8336E+02
 SWT_Normal           3.1549E+03 3.1577E+03 3.6550E+02 3.3159E+03 1.7861E+04
 SWT_SWTType2         1.6868E+03 1.8065E+03 1.7941E+03 2.8015E+03 9.7250E+03
 PROCESSES                               
 Start                0.0000E+00-1.0947E+00-3.7153E-06-3.7596E+00 3.0579E+01
 Upstream pipe        0.0000E+00-1.0662E+00-1.4181E-05-3.6542E+00 2.9177E+01
 Near pipe            0.0000E+00-1.0572E+00-5.3995E-04-3.6174E+00 2.8391E+01
 Far field            0.0000E+00-4.5850E-01-2.5622E+00-3.2160E+00 1.6558E+01
 SWT_Normal           0.0000E+00-1.1613E+01-6.2755E+00-4.1105E+01 2.8122E+02
 SWT_SWTType2         0.0000E+00-6.6259E+00-3.4701E+01-4.0662E+01 1.8043E+02
 LOADS ( IN )                            
 Start                0.0000E+00 0.0000E+00 0.0000E+00 0.0000E+00 0.0000E+00
 Upstream pipe        0.0000E+00 0.0000E+00 0.0000E+00 0.0000E+00 0.0000E+00
 Near pipe            0.0000E+00 0.0000E+00 0.0000E+00 0.0000E+00 0.0000E+00
 Far field            0.0000E+00 0.0000E+00 0.0000E+00 0.0000E+00 0.0000E+00
 SWT_Normal           0.0000E+00 0.0000E+00 0.0000E+00 0.0000E+00 0.0000E+00
 SWT_SWTType2         0.0000E+00 0.0000E+00 0.0000E+00 0.0000E+00 0.0000E+00
 LOADS ( OUT )                           
 Start                0.0000E+00 0.0000E+00 0.0000E+00 0.0000E+00 0.0000E+00
 Upstream pipe        0.0000E+00 0.0000E+00 0.0000E+00 0.0000E+00 0.0000E+00
 Near pipe            0.0000E+00 0.0000E+00 0.0000E+00 0.0000E+00 0.0000E+00
 Far field            0.0000E+00 0.0000E+00 0.0000E+00 0.0000E+00 0.0000E+00
 SWT_Normal           0.0000E+00 0.0000E+00 0.0000E+00 0.0000E+00 0.0000E+00
 SWT_SWTType2         0.0000E+00 0.0000E+00 0.0000E+00 0.0000E+00 0.0000E+00
 TRANSPORT ( IN )                        
 Start                1.4970E+03 1.4965E+03 0.0000E+00 1.4952E+03 8.2492E+03
 Upstream pipe        1.4968E+03 1.4934E+03 1.6725E-03 1.4858E+03 8.3163E+03
 Near pipe            1.4964E+03 1.4909E+03 3.2072E-03 1.4780E+03 8.3729E+03
 Far field            1.5254E+03 1.6202E+03 1.4733E+03 2.4269E+03 8.8799E+03
 SWT_Normal           1.5258E+03 1.6553E+03 1.7267E+03 2.6482E+03 8.4209E+03
 SWT_SWTType2         1.5234E+03 1.6383E+03 1.6759E+03 2.5763E+03 8.6907E+03
 TRANSPORT ( OUT )                       
 Start                1.4970E+03 1.4953E+03 9.8312E-04 1.4914E+03 8.2792E+03
 Upstream pipe        1.4966E+03 1.4922E+03 2.6166E-03 1.4819E+03 8.3448E+03
 Near pipe            1.4961E+03 1.4895E+03 1.3017E-03 1.4740E+03 8.4008E+03
 Far field            1.5256E+03 1.6190E+03 1.4597E+03 2.4163E+03 8.9001E+03
 SWT_Normal           1.5234E+03 1.6383E+03 1.6759E+03 2.5763E+03 8.6907E+03
 SWT_SWTType2         1.5257E+03 1.6184E+03 1.4532E+03 2.4112E+03 8.9098E+03
 
  11.03% Completed


 DUMP OF INTERMEDIATE RESULTS IN SELECTED SEGMENTS
  TIME =   0D 16H  0M  0S .
 
 TOTAL MASS IN SYSTEM 4.8372E+03 4.9931E+03 2.6087E+03 6.4042E+03 2.7569E+04
 CHANGES BY PROCESSES 0.0000E+00-1.8303E+01-4.6302E+01-8.4240E+01 4.5821E+02
 CHANGES BY LOADS     0.0000E+00 0.0000E+00 0.0000E+00 0.0000E+00 0.0000E+00
 BOUNDARY INFLOWS     1.4745E+03 1.6299E+03 2.0726E+03 2.8217E+03 8.1443E+03
 BOUNDARY OUTFLOWS    1.4790E+03 1.5828E+03 1.5772E+03 2.4506E+03 8.6192E+03
                      Continuity NH4        CBOD5      CBOD5_2    OXY        
                                                                             
 CONCENTRATION                           
 Start                1.0000E+00 9.9871E-01 5.4167E-07 9.9562E-01 5.5352E+00
 Upstream pipe        1.0000E+00 9.9683E-01 3.0864E-06 9.8952E-01 5.5805E+00
 Near pipe            1.0000E+00 9.9540E-01 1.4037E-04 9.8467E-01 5.6194E+00
 Far field            1.0000E+00 1.0754E+00 1.1317E+00 1.7005E+00 5.8204E+00
 SWT_Normal           9.9999E-01 1.0038E+00 1.5960E-01 1.0786E+00 5.6657E+00
 SWT_SWTType2         1.0000E+00 1.0858E+00 1.2556E+00 1.7868E+00 5.7630E+00
 MASS                                    
 Start                2.9792E+02 2.9753E+02 1.6137E-04 2.9661E+02 1.6490E+03
 Upstream pipe        2.9103E+02 2.9010E+02 8.9821E-04 2.8798E+02 1.6241E+03
 Near pipe            2.8932E+02 2.8799E+02 4.0611E-02 2.8488E+02 1.6258E+03
 Far field            1.1624E+02 1.2500E+02 1.3155E+02 1.9767E+02 6.7656E+02
 SWT_Normal           3.1614E+03 3.1736E+03 5.0456E+02 3.4099E+03 1.7912E+04
 SWT_SWTType2         1.6758E+03 1.8195E+03 2.1042E+03 2.9943E+03 9.6575E+03
 PROCESSES                               
 Start                0.0000E+00-1.0951E+00-4.7970E-06-3.7601E+00 3.0567E+01
 Upstream pipe        0.0000E+00-1.0672E+00-1.7726E-05-3.6560E+00 2.9170E+01
 Near pipe            0.0000E+00-1.0588E+00-6.3089E-04-3.6213E+00 2.8408E+01
 Far field            0.0000E+00-4.6000E-01-2.8501E+00-3.3565E+00 1.6498E+01
 SWT_Normal           0.0000E+00-1.1640E+01-7.2362E+00-4.1552E+01 2.8022E+02
 SWT_SWTType2         0.0000E+00-6.6633E+00-3.9066E+01-4.2688E+01 1.7799E+02
 LOADS ( IN )                            
 Start                0.0000E+00 0.0000E+00 0.0000E+00 0.0000E+00 0.0000E+00
 Upstream pipe        0.0000E+00 0.0000E+00 0.0000E+00 0.0000E+00 0.0000E+00
 Near pipe            0.0000E+00 0.0000E+00 0.0000E+00 0.0000E+00 0.0000E+00
 Far field            0.0000E+00 0.0000E+00 0.0000E+00 0.0000E+00 0.0000E+00
 SWT_Normal           0.0000E+00 0.0000E+00 0.0000E+00 0.0000E+00 0.0000E+00
 SWT_SWTType2         0.0000E+00 0.0000E+00 0.0000E+00 0.0000E+00 0.0000E+00
 LOADS ( OUT )                           
 Start                0.0000E+00 0.0000E+00 0.0000E+00 0.0000E+00 0.0000E+00
 Upstream pipe        0.0000E+00 0.0000E+00 0.0000E+00 0.0000E+00 0.0000E+00
 Near pipe            0.0000E+00 0.0000E+00 0.0000E+00 0.0000E+00 0.0000E+00
 Far field            0.0000E+00 0.0000E+00 0.0000E+00 0.0000E+00 0.0000E+00
 SWT_Normal           0.0000E+00 0.0000E+00 0.0000E+00 0.0000E+00 0.0000E+00
 SWT_SWTType2         0.0000E+00 0.0000E+00 0.0000E+00 0.0000E+00 0.0000E+00
 TRANSPORT ( IN )                        
 Start                1.4399E+03 1.4393E+03 4.5895E-06 1.4380E+03 7.9348E+03
 Upstream pipe        1.4392E+03 1.4358E+03 1.8538E-03 1.4283E+03 7.9978E+03
 Near pipe            1.4382E+03 1.4328E+03 1.0047E-02 1.4202E+03 8.0489E+03
 Far field            1.4776E+03 1.5838E+03 1.6028E+03 2.4685E+03 8.5852E+03
 SWT_Normal           1.4745E+03 1.6299E+03 2.0726E+03 2.8217E+03 8.1443E+03
 SWT_SWTType2         1.4680E+03 1.6024E+03 1.9263E+03 2.6861E+03 8.3737E+03
 TRANSPORT ( OUT )                       
 Start                1.4397E+03 1.4381E+03 1.0839E-03 1.4341E+03 7.9638E+03
 Upstream pipe        1.4387E+03 1.4344E+03 2.9383E-03 1.4243E+03 8.0240E+03
 Near pipe            1.4375E+03 1.4311E+03 0.0000E+00 1.4160E+03 8.0727E+03
 Far field            1.4787E+03 1.5832E+03 1.5855E+03 2.4565E+03 8.6085E+03
 SWT_Normal           1.4680E+03 1.6024E+03 1.9263E+03 2.6861E+03 8.3737E+03
 SWT_SWTType2         1.4790E+03 1.5828E+03 1.5772E+03 2.4506E+03 8.6192E+03
 
  11.72% Completed


 DUMP OF INTERMEDIATE RESULTS IN SELECTED SEGMENTS
  TIME =   0D 17H  0M  0S .
 
 TOTAL MASS IN SYSTEM 4.8619E+03 5.9260E+03 1.4670E+04 1.4281E+04 2.7853E+04
 CHANGES BY PROCESSES 0.0000E+00-1.9656E+01-1.3745E+02-1.2586E+02 3.7534E+02
 CHANGES BY LOADS     0.0000E+00 0.0000E+00 0.0000E+00 0.0000E+00 0.0000E+00
 BOUNDARY INFLOWS     1.4735E+03 2.5962E+03 1.4969E+04 1.1203E+04 8.3537E+03
 BOUNDARY OUTFLOWS    1.4488E+03 1.6436E+03 2.7699E+03 3.2006E+03 8.4454E+03
                      Continuity NH4        CBOD5      CBOD5_2    OXY        
                                                                             
 CONCENTRATION                           
 Start                1.0000E+00 9.9848E-01 8.5774E-08 9.9481E-01 5.5418E+00
 Upstream pipe        1.0000E+00 9.9630E-01 7.9678E-06 9.8791E-01 5.5914E+00
 Near pipe            1.0000E+00 9.9488E-01 1.0257E-03 9.8334E-01 5.6333E+00
 Far field            1.0000E+00 1.2496E+00 3.4273E+00 3.1988E+00 5.8293E+00
 SWT_Normal           9.9999E-01 1.0762E+00 1.1287E+00 1.7075E+00 5.6887E+00
 SWT_SWTType2         1.0000E+00 1.4873E+00 6.5706E+00 5.2510E+00 5.8041E+00
 MASS                                    
 Start                2.9830E+02 2.9785E+02 2.5587E-05 2.9675E+02 1.6531E+03
 Upstream pipe        2.9191E+02 2.9083E+02 2.3259E-03 2.8838E+02 1.6322E+03
 Near pipe            2.9071E+02 2.8922E+02 2.9818E-01 2.8587E+02 1.6377E+03
 Far field            1.1655E+02 1.4563E+02 3.9944E+02 3.7280E+02 6.7938E+02
 SWT_Normal           3.1746E+03 3.4164E+03 3.5832E+03 5.4206E+03 1.8059E+04
 SWT_SWTType2         1.6874E+03 2.5096E+03 1.1087E+04 8.8603E+03 9.7936E+03
 PROCESSES                               
 Start                0.0000E+00-1.0964E+00-1.3530E-06-3.7619E+00 3.0511E+01
 Upstream pipe        0.0000E+00-1.0703E+00-2.0311E-05-3.6612E+00 2.9098E+01
 Near pipe            0.0000E+00-1.0638E+00-1.9514E-03-3.6313E+00 2.8329E+01
 Far field            0.0000E+00-4.7562E-01-4.3357E+00-4.0798E+00 1.5396E+01
 SWT_Normal           0.0000E+00-1.2130E+01-3.6997E+01-5.4942E+01 2.5139E+02
 SWT_SWTType2         0.0000E+00-7.5264E+00-1.0045E+02-7.0913E+01 1.2395E+02
 LOADS ( IN )                            
 Start                0.0000E+00 0.0000E+00 0.0000E+00 0.0000E+00 0.0000E+00
 Upstream pipe        0.0000E+00 0.0000E+00 0.0000E+00 0.0000E+00 0.0000E+00
 Near pipe            0.0000E+00 0.0000E+00 0.0000E+00 0.0000E+00 0.0000E+00
 Far field            0.0000E+00 0.0000E+00 0.0000E+00 0.0000E+00 0.0000E+00
 SWT_Normal           0.0000E+00 0.0000E+00 0.0000E+00 0.0000E+00 0.0000E+00
 SWT_SWTType2         0.0000E+00 0.0000E+00 0.0000E+00 0.0000E+00 0.0000E+00
 LOADS ( OUT )                           
 Start                0.0000E+00 0.0000E+00 0.0000E+00 0.0000E+00 0.0000E+00
 Upstream pipe        0.0000E+00 0.0000E+00 0.0000E+00 0.0000E+00 0.0000E+00
 Near pipe            0.0000E+00 0.0000E+00 0.0000E+00 0.0000E+00 0.0000E+00
 Far field            0.0000E+00 0.0000E+00 0.0000E+00 0.0000E+00 0.0000E+00
 SWT_Normal           0.0000E+00 0.0000E+00 0.0000E+00 0.0000E+00 0.0000E+00
 SWT_SWTType2         0.0000E+00 0.0000E+00 0.0000E+00 0.0000E+00 0.0000E+00
 TRANSPORT ( IN )                        
 Start                1.2239E+03 1.2234E+03 1.4888E-05 1.2221E+03 6.7464E+03
 Upstream pipe        1.2224E+03 1.2194E+03 2.1477E-03 1.2125E+03 6.7996E+03
 Near pipe            1.2204E+03 1.2154E+03 2.8349E-01 1.2039E+03 6.8393E+03
 Far field            1.4492E+03 1.6741E+03 3.1638E+03 3.4600E+03 8.4262E+03
 SWT_Normal           1.4735E+03 2.5962E+03 1.4969E+04 1.1203E+04 8.3537E+03
 SWT_SWTType2         1.4604E+03 2.3412E+03 1.1853E+04 9.1376E+03 8.4576E+03
 TRANSPORT ( OUT )                       
 Start                1.2235E+03 1.2219E+03 1.1430E-04 1.2182E+03 6.7728E+03
 Upstream pipe        1.2215E+03 1.2176E+03 6.6626E-04 1.2084E+03 6.8206E+03
 Near pipe            1.2190E+03 1.2131E+03 2.3951E-02 1.1993E+03 6.8557E+03
 Far field            1.4489E+03 1.6530E+03 2.8916E+03 3.2808E+03 8.4388E+03
 SWT_Normal           1.4604E+03 2.3412E+03 1.1853E+04 9.1376E+03 8.4576E+03
 SWT_SWTType2         1.4488E+03 1.6436E+03 2.7699E+03 3.2006E+03 8.4454E+03
 
1
                                             Water quality calculation Sobek-WQ      
                                                                                     
                                                                                     
                                             T0: 2010.01.01 00:00:00  (scu=       1s)
  12.41% Completed


 DUMP OF INTERMEDIATE RESULTS IN SELECTED SEGMENTS
  TIME =   0D 18H  0M  0S .
 
[...]
 SWT_SWTType2         1.6801E+03 1.7399E+03 1.0021E+03 2.2784E+03 9.6828E+03
 PROCESSES                               
 Start                0.0000E+00-1.0981E+00-5.0571E-06-3.7674E+00 3.0591E+01
 Upstream pipe        0.0000E+00-1.0701E+00-1.6664E-05-3.6630E+00 2.9190E+01
 Near pipe            0.0000E+00-1.0617E+00-3.7848E-04-3.6276E+00 2.8411E+01
 Far field            0.0000E+00-4.4361E-01-1.6084E+00-2.7425E+00 1.7342E+01
 SWT_Normal           0.0000E+00-1.1322E+01-3.5660E+00-3.8344E+01 2.7606E+02
 SWT_SWTType2         0.0000E+00-6.4069E+00-2.0844E+01-3.4098E+01 1.9244E+02
 LOADS ( IN )                            
 Start                0.0000E+00 0.0000E+00 0.0000E+00 0.0000E+00 0.0000E+00
 Upstream pipe        0.0000E+00 0.0000E+00 0.0000E+00 0.0000E+00 0.0000E+00
 Near pipe            0.0000E+00 0.0000E+00 0.0000E+00 0.0000E+00 0.0000E+00
 Far field            0.0000E+00 0.0000E+00 0.0000E+00 0.0000E+00 0.0000E+00
 SWT_Normal           0.0000E+00 0.0000E+00 0.0000E+00 0.0000E+00 0.0000E+00
 SWT_SWTType2         0.0000E+00 0.0000E+00 0.0000E+00 0.0000E+00 0.0000E+00
 LOADS ( OUT )                           
 Start                0.0000E+00 0.0000E+00 0.0000E+00 0.0000E+00 0.0000E+00
 Upstream pipe        0.0000E+00 0.0000E+00 0.0000E+00 0.0000E+00 0.0000E+00
 Near pipe            0.0000E+00 0.0000E+00 0.0000E+00 0.0000E+00 0.0000E+00
 Far field            0.0000E+00 0.0000E+00 0.0000E+00 0.0000E+00 0.0000E+00
 SWT_Normal           0.0000E+00 0.0000E+00 0.0000E+00 0.0000E+00 0.0000E+00
 SWT_SWTType2         0.0000E+00 0.0000E+00 0.0000E+00 0.0000E+00 0.0000E+00
 TRANSPORT ( IN )                        
 Start                1.4487E+03 1.4482E+03 0.0000E+00 1.4468E+03 7.9836E+03
 Upstream pipe        1.4487E+03 1.4454E+03 2.0647E-03 1.4378E+03 8.0508E+03
 Near pipe            1.4487E+03 1.4432E+03 3.3499E-03 1.4305E+03 8.1088E+03
 Far field            1.4634E+03 1.5137E+03 8.6977E+02 1.9752E+03 8.5058E+03
 SWT_Normal           1.4635E+03 1.5299E+03 8.8535E+02 2.0390E+03 8.0640E+03
 SWT_SWTType2         1.4635E+03 1.5191E+03 8.8293E+02 2.0019E+03 8.3399E+03
 TRANSPORT ( OUT )                       
 Start                1.4487E+03 1.4471E+03 1.2165E-03 1.4431E+03 8.0141E+03
 Upstream pipe        1.4487E+03 1.4443E+03 3.4141E-03 1.4341E+03 8.0799E+03
 Near pipe            1.4487E+03 1.4422E+03 3.5538E-03 1.4268E+03 8.1372E+03
 Far field            1.4633E+03 1.5132E+03 8.6857E+02 1.9727E+03 8.5231E+03
 SWT_Normal           1.4635E+03 1.5191E+03 8.8293E+02 2.0019E+03 8.3399E+03
 SWT_SWTType2         1.4633E+03 1.5130E+03 8.6798E+02 1.9715E+03 8.5317E+03
 
  97.93% Completed


 DUMP OF INTERMEDIATE RESULTS IN SELECTED SEGMENTS
  TIME =   5D 22H  0M  0S .
 
 TOTAL MASS IN SYSTEM 4.8456E+03 4.8138E+03 1.1868E+03 5.3413E+03 2.7813E+04
 CHANGES BY PROCESSES 0.0000E+00-1.7726E+01-2.4267E+01-7.2371E+01 4.6865E+02
 CHANGES BY LOADS     0.0000E+00 0.0000E+00 0.0000E+00 0.0000E+00 0.0000E+00
 BOUNDARY INFLOWS     1.4643E+03 1.5303E+03 8.8060E+02 2.0366E+03 8.0681E+03
 BOUNDARY OUTFLOWS    1.4641E+03 1.5134E+03 8.6329E+02 1.9691E+03 8.5359E+03
                      Continuity NH4        CBOD5      CBOD5_2    OXY        
                                                                             
 CONCENTRATION                           
 Start                1.0000E+00 9.9873E-01 9.1858E-07 9.9569E-01 5.5346E+00
 Upstream pipe        1.0000E+00 9.9685E-01 3.0850E-06 9.8962E-01 5.5795E+00
 Near pipe            1.0000E+00 9.9539E-01 6.9778E-05 9.8465E-01 5.6189E+00
 Far field            1.0000E+00 1.0337E+00 5.8856E-01 1.3448E+00 5.8245E+00
 SWT_Normal           9.9999E-01 9.7116E-01 6.0173E-02 9.6874E-01 5.7273E+00
 SWT_SWTType2         1.0000E+00 1.0354E+00 5.9297E-01 1.3539E+00 5.7631E+00
 MASS                                    
 Start                2.9863E+02 2.9825E+02 2.7432E-04 2.9734E+02 1.6528E+03
 Upstream pipe        2.9156E+02 2.9064E+02 8.9947E-04 2.8854E+02 1.6268E+03
 Near pipe            2.8968E+02 2.8835E+02 2.0214E-02 2.8524E+02 1.6277E+03
 Far field            1.1653E+02 1.2046E+02 6.8584E+01 1.5670E+02 6.7872E+02
 SWT_Normal           3.1654E+03 3.0741E+03 1.9047E+02 3.0665E+03 1.8129E+04
 SWT_SWTType2         1.6802E+03 1.7397E+03 9.9633E+02 2.2748E+03 9.6834E+03
 PROCESSES                               
 Start                0.0000E+00-1.0981E+00-5.0617E-06-3.7675E+00 3.0591E+01
 Upstream pipe        0.0000E+00-1.0701E+00-1.6634E-05-3.6630E+00 2.9191E+01
 Near pipe            0.0000E+00-1.0617E+00-3.7556E-04-3.6276E+00 2.8412E+01
 Far field            0.0000E+00-4.4354E-01-1.5989E+00-2.7380E+00 1.7351E+01
 SWT_Normal           0.0000E+00-1.1320E+01-3.5447E+00-3.8329E+01 2.7609E+02
 SWT_SWTType2         0.0000E+00-6.4058E+00-2.0723E+01-3.4042E+01 1.9256E+02
 LOADS ( IN )                            
 Start                0.0000E+00 0.0000E+00 0.0000E+00 0.0000E+00 0.0000E+00
 Upstream pipe        0.0000E+00 0.0000E+00 0.0000E+00 0.0000E+00 0.0000E+00
 Near pipe            0.0000E+00 0.0000E+00 0.0000E+00 0.0000E+00 0.0000E+00
 Far field            0.0000E+00 0.0000E+00 0.0000E+00 0.0000E+00 0.0000E+00
 SWT_Normal           0.0000E+00 0.0000E+00 0.0000E+00 0.0000E+00 0.0000E+00
 SWT_SWTType2         0.0000E+00 0.0000E+00 0.0000E+00 0.0000E+00 0.0000E+00
 LOADS ( OUT )                           
 Start                0.0000E+00 0.0000E+00 0.0000E+00 0.0000E+00 0.0000E+00
 Upstream pipe        0.0000E+00 0.0000E+00 0.0000E+00 0.0000E+00 0.0000E+00
 Near pipe            0.0000E+00 0.0000E+00 0.0000E+00 0.0000E+00 0.0000E+00
 Far field            0.0000E+00 0.0000E+00 0.0000E+00 0.0000E+00 0.0000E+00
 SWT_Normal           0.0000E+00 0.0000E+00 0.0000E+00 0.0000E+00 0.0000E+00
 SWT_SWTType2         0.0000E+00 0.0000E+00 0.0000E+00 0.0000E+00 0.0000E+00
 TRANSPORT ( IN )                        
 Start                1.4496E+03 1.4490E+03 0.0000E+00 1.4477E+03 7.9882E+03
 Upstream pipe        1.4496E+03 1.4462E+03 2.0676E-03 1.4386E+03 8.0554E+03
 Near pipe            1.4496E+03 1.4441E+03 3.3537E-03 1.4313E+03 8.1134E+03
 Far field            1.4641E+03 1.5141E+03 8.6507E+02 1.9728E+03 8.5101E+03
 SWT_Normal           1.4643E+03 1.5303E+03 8.8060E+02 2.0366E+03 8.0681E+03
 SWT_SWTType2         1.4643E+03 1.5196E+03 8.7820E+02 1.9996E+03 8.3440E+03
 TRANSPORT ( OUT )                       
 Start                1.4496E+03 1.4479E+03 1.2190E-03 1.4439E+03 8.0188E+03
 Upstream pipe        1.4496E+03 1.4451E+03 3.4188E-03 1.4349E+03 8.0846E+03
 Near pipe            1.4496E+03 1.4430E+03 3.5577E-03 1.4277E+03 8.1418E+03
 Far field            1.4641E+03 1.5136E+03 8.6388E+02 1.9704E+03 8.5274E+03
 SWT_Normal           1.4643E+03 1.5196E+03 8.7820E+02 1.9996E+03 8.3440E+03
 SWT_SWTType2         1.4641E+03 1.5134E+03 8.6329E+02 1.9691E+03 8.5359E+03
 
  98.62% Completed


 DUMP OF INTERMEDIATE RESULTS IN SELECTED SEGMENTS
  TIME =   5D 23H  0M  0S .
 
 TOTAL MASS IN SYSTEM 4.8458E+03 4.8129E+03 1.1799E+03 5.3365E+03 2.7813E+04
 CHANGES BY PROCESSES 0.0000E+00-1.7722E+01-2.4126E+01-7.2301E+01 4.6880E+02
 CHANGES BY LOADS     0.0000E+00 0.0000E+00 0.0000E+00 0.0000E+00 0.0000E+00
 BOUNDARY INFLOWS     1.4650E+03 1.5307E+03 8.7588E+02 2.0343E+03 8.0722E+03
 BOUNDARY OUTFLOWS    1.4649E+03 1.5138E+03 8.5866E+02 1.9669E+03 8.5402E+03
                      Continuity NH4        CBOD5      CBOD5_2    OXY        
                                                                             
 CONCENTRATION                           
 Start                1.0000E+00 9.9873E-01 9.1930E-07 9.9569E-01 5.5346E+00
 Upstream pipe        1.0000E+00 9.9685E-01 3.0795E-06 9.8963E-01 5.5795E+00
 Near pipe            1.0000E+00 9.9539E-01 6.9243E-05 9.8466E-01 5.6189E+00
 Far field            1.0000E+00 1.0335E+00 5.8510E-01 1.3425E+00 5.8244E+00
 SWT_Normal           9.9999E-01 9.7098E-01 5.9816E-02 9.6836E-01 5.7273E+00
 SWT_SWTType2         1.0000E+00 1.0351E+00 5.8948E-01 1.3516E+00 5.7630E+00
 MASS                                    
 Start                2.9864E+02 2.9826E+02 2.7454E-04 2.9735E+02 1.6528E+03
 Upstream pipe        2.9156E+02 2.9065E+02 8.9787E-04 2.8854E+02 1.6268E+03
 Near pipe            2.8968E+02 2.8835E+02 2.0059E-02 2.8524E+02 1.6277E+03
 Far field            1.1654E+02 1.2044E+02 6.8187E+01 1.5646E+02 6.7877E+02
 SWT_Normal           3.1654E+03 3.0736E+03 1.8934E+02 3.0652E+03 1.8129E+04
 SWT_SWTType2         1.6804E+03 1.7394E+03 9.9056E+02 2.2712E+03 9.6840E+03
 PROCESSES                               
 Start                0.0000E+00-1.0981E+00-5.0655E-06-3.7675E+00 3.0592E+01
 Upstream pipe        0.0000E+00-1.0701E+00-1.6610E-05-3.6631E+00 2.9192E+01
 Near pipe            0.0000E+00-1.0617E+00-3.7269E-04-3.6277E+00 2.8414E+01
 Far field            0.0000E+00-4.4347E-01-1.5896E+00-2.7336E+00 1.7359E+01
 SWT_Normal           0.0000E+00-1.1318E+01-3.5236E+00-3.8314E+01 2.7611E+02
 SWT_SWTType2         0.0000E+00-6.4047E+00-2.0602E+01-3.3987E+01 1.9269E+02
 LOADS ( IN )                            
 Start                0.0000E+00 0.0000E+00 0.0000E+00 0.0000E+00 0.0000E+00
 Upstream pipe        0.0000E+00 0.0000E+00 0.0000E+00 0.0000E+00 0.0000E+00
 Near pipe            0.0000E+00 0.0000E+00 0.0000E+00 0.0000E+00 0.0000E+00
 Far field            0.0000E+00 0.0000E+00 0.0000E+00 0.0000E+00 0.0000E+00
 SWT_Normal           0.0000E+00 0.0000E+00 0.0000E+00 0.0000E+00 0.0000E+00
 SWT_SWTType2         0.0000E+00 0.0000E+00 0.0000E+00 0.0000E+00 0.0000E+00
 LOADS ( OUT )                           
 Start                0.0000E+00 0.0000E+00 0.0000E+00 0.0000E+00 0.0000E+00
 Upstream pipe        0.0000E+00 0.0000E+00 0.0000E+00 0.0000E+00 0.0000E+00
 Near pipe            0.0000E+00 0.0000E+00 0.0000E+00 0.0000E+00 0.0000E+00
 Far field            0.0000E+00 0.0000E+00 0.0000E+00 0.0000E+00 0.0000E+00
 SWT_Normal           0.0000E+00 0.0000E+00 0.0000E+00 0.0000E+00 0.0000E+00
 SWT_SWTType2         0.0000E+00 0.0000E+00 0.0000E+00 0.0000E+00 0.0000E+00
 TRANSPORT ( IN )                        
 Start                1.4504E+03 1.4499E+03 0.0000E+00 1.4485E+03 7.9928E+03
 Upstream pipe        1.4504E+03 1.4470E+03 2.0702E-03 1.4395E+03 8.0600E+03
 Near pipe            1.4504E+03 1.4449E+03 3.3584E-03 1.4321E+03 8.1180E+03
 Far field            1.4649E+03 1.5145E+03 8.6043E+02 1.9706E+03 8.5144E+03
 SWT_Normal           1.4650E+03 1.5307E+03 8.7588E+02 2.0343E+03 8.0722E+03
 SWT_SWTType2         1.4650E+03 1.5200E+03 8.7349E+02 1.9973E+03 8.3482E+03
 TRANSPORT ( OUT )                       
 Start                1.4504E+03 1.4488E+03 1.2206E-03 1.4448E+03 8.0234E+03
 Upstream pipe        1.4504E+03 1.4460E+03 3.4231E-03 1.4358E+03 8.0892E+03
 Near pipe            1.4504E+03 1.4438E+03 3.5641E-03 1.4285E+03 8.1465E+03
 Far field            1.4649E+03 1.5140E+03 8.5924E+02 1.9681E+03 8.5317E+03
 SWT_Normal           1.4650E+03 1.5200E+03 8.7349E+02 1.9973E+03 8.3482E+03
 SWT_SWTType2         1.4649E+03 1.5138E+03 8.5866E+02 1.9669E+03 8.5402E+03
 
1
                                             Water quality calculation Sobek-WQ      
                                                                                     
                                                                                     
                                             T0: 2010.01.01 00:00:00  (scu=       1s)
  99.31% Completed


 DUMP OF INTERMEDIATE RESULTS IN SELECTED SEGMENTS
  TIME =   6D  0H  0M  0S .
 
 TOTAL MASS IN SYSTEM 4.8459E+03 4.8121E+03 1.1731E+03 5.3317E+03 2.7814E+04
 CHANGES BY PROCESSES 0.0000E+00-1.7719E+01-2.3986E+01-7.2232E+01 4.6895E+02
 CHANGES BY LOADS     0.0000E+00 0.0000E+00 0.0000E+00 0.0000E+00 0.0000E+00
 BOUNDARY INFLOWS     1.4658E+03 1.5311E+03 8.7124E+02 2.0321E+03 8.0764E+03
 BOUNDARY OUTFLOWS    1.4656E+03 1.5143E+03 8.5406E+02 1.9646E+03 8.5445E+03
                      Continuity NH4        CBOD5      CBOD5_2    OXY        
                                                                             
 CONCENTRATION                           
 Start                1.0000E+00 9.9873E-01 9.1874E-07 9.9570E-01 5.5346E+00
 Upstream pipe        1.0000E+00 9.9686E-01 3.0726E-06 9.8964E-01 5.5794E+00
 Near pipe            1.0000E+00 9.9540E-01 6.8714E-05 9.8467E-01 5.6188E+00
 Far field            1.0000E+00 1.0332E+00 5.8168E-01 1.3403E+00 5.8243E+00
 SWT_Normal           9.9999E-01 9.7080E-01 5.9464E-02 9.6798E-01 5.7274E+00
 SWT_SWTType2         1.0000E+00 1.0348E+00 5.8604E-01 1.3494E+00 5.7629E+00
 MASS                                    
 Start                2.9864E+02 2.9826E+02 2.7437E-04 2.9736E+02 1.6529E+03
 Upstream pipe        2.9157E+02 2.9065E+02 8.9587E-04 2.8855E+02 1.6268E+03
 Near pipe            2.8968E+02 2.8835E+02 1.9905E-02 2.8524E+02 1.6277E+03
 Far field            1.1655E+02 1.2042E+02 6.7795E+01 1.5621E+02 6.7882E+02
 SWT_Normal           3.1654E+03 3.0730E+03 1.8823E+02 3.0641E+03 1.8130E+04
 SWT_SWTType2         1.6805E+03 1.7391E+03 9.8487E+02 2.2677E+03 9.6847E+03
 PROCESSES                               
 Start                0.0000E+00-1.0982E+00-5.0687E-06-3.7676E+00 3.0592E+01
 Upstream pipe        0.0000E+00-1.0701E+00-1.6580E-05-3.6631E+00 2.9193E+01
 Near pipe            0.0000E+00-1.0617E+00-3.6984E-04-3.6277E+00 2.8415E+01
 Far field            0.0000E+00-4.4341E-01-1.5804E+00-2.7292E+00 1.7368E+01
 SWT_Normal           0.0000E+00-1.1316E+01-3.5028E+00-3.8299E+01 2.7614E+02
 SWT_SWTType2         0.0000E+00-6.4037E+00-2.0483E+01-3.3933E+01 1.9281E+02
 LOADS ( IN )                            
 Start                0.0000E+00 0.0000E+00 0.0000E+00 0.0000E+00 0.0000E+00
 Upstream pipe        0.0000E+00 0.0000E+00 0.0000E+00 0.0000E+00 0.0000E+00
 Near pipe            0.0000E+00 0.0000E+00 0.0000E+00 0.0000E+00 0.0000E+00
 Far field            0.0000E+00 0.0000E+00 0.0000E+00 0.0000E+00 0.0000E+00
 SWT_Normal           0.0000E+00 0.0000E+00 0.0000E+00 0.0000E+00 0.0000E+00
 SWT_SWTType2         0.0000E+00 0.0000E+00 0.0000E+00 0.0000E+00 0.0000E+00
 LOADS ( OUT )                           
 Start                0.0000E+00 0.0000E+00 0.0000E+00 0.0000E+00 0.0000E+00
 Upstream pipe        0.0000E+00 0.0000E+00 0.0000E+00 0.0000E+00 0.0000E+00
 Near pipe            0.0000E+00 0.0000E+00 0.0000E+00 0.0000E+00 0.0000E+00
 Far field            0.0000E+00 0.0000E+00 0.0000E+00 0.0000E+00 0.0000E+00
 SWT_Normal           0.0000E+00 0.0000E+00 0.0000E+00 0.0000E+00 0.0000E+00
 SWT_SWTType2         0.0000E+00 0.0000E+00 0.0000E+00 0.0000E+00 0.0000E+00
 TRANSPORT ( IN )                        
 Start                1.4513E+03 1.4507E+03 0.0000E+00 1.4494E+03 7.9975E+03
 Upstream pipe        1.4513E+03 1.4479E+03 2.0721E-03 1.4403E+03 8.0647E+03
 Near pipe            1.4513E+03 1.4457E+03 3.3612E-03 1.4330E+03 8.1227E+03
 Far field            1.4656E+03 1.5149E+03 8.5583E+02 1.9683E+03 8.5186E+03
 SWT_Normal           1.4658E+03 1.5311E+03 8.7124E+02 2.0321E+03 8.0764E+03
 SWT_SWTType2         1.4658E+03 1.5204E+03 8.6885E+02 1.9950E+03 8.3523E+03
 TRANSPORT ( OUT )                       
 Start                1.4513E+03 1.4496E+03 1.2220E-03 1.4456E+03 8.0280E+03
 Upstream pipe        1.4513E+03 1.4468E+03 3.4262E-03 1.4366E+03 8.0938E+03
 Near pipe            1.4513E+03 1.4447E+03 3.5678E-03 1.4294E+03 8.1511E+03
 Far field            1.4656E+03 1.5145E+03 8.5464E+02 1.9658E+03 8.5359E+03
 SWT_Normal           1.4658E+03 1.5204E+03 8.6885E+02 1.9950E+03 8.3523E+03
 SWT_SWTType2         1.4656E+03 1.5143E+03 8.5406E+02 1.9646E+03 8.5445E+03
 

 REWIND ON       UNIT:  23, READING: ..\WORK\Area.dat
 AT SIMULATION TIME:    6D  1H  0M  0S !
 TIME IN FILE:          6D  1H  0M  0S !

 REWIND ON       UNIT:  24, READING: ..\WORK\Flow.dat
 AT SIMULATION TIME:    6D  1H  0M  0S !
 TIME IN FILE:          6D  1H  0M  0S !
 100.00% Completed


 DUMP OF INTERMEDIATE RESULTS IN SELECTED SEGMENTS
  TIME =   6D  1H  0M  0S .
 
 TOTAL MASS IN SYSTEM 4.8461E+03 4.8112E+03 1.1664E+03 5.3270E+03 2.7815E+04
 CHANGES BY PROCESSES 0.0000E+00-1.7716E+01-2.3848E+01-7.2164E+01 4.6909E+02
 CHANGES BY LOADS     0.0000E+00 0.0000E+00 0.0000E+00 0.0000E+00 0.0000E+00
 BOUNDARY INFLOWS     1.4666E+03 1.5316E+03 8.6666E+02 2.0299E+03 8.0805E+03
 BOUNDARY OUTFLOWS    1.4664E+03 1.5147E+03 8.4954E+02 1.9624E+03 8.5488E+03
                      Continuity NH4        CBOD5      CBOD5_2    OXY        
                                                                             
 CONCENTRATION                           
 Start                1.0000E+00 9.9873E-01 9.2320E-07 9.9570E-01 5.5346E+00
 Upstream pipe        1.0000E+00 9.9686E-01 3.0732E-06 9.8964E-01 5.5794E+00
 Near pipe            1.0000E+00 9.9540E-01 6.8199E-05 9.8468E-01 5.6187E+00
 Far field            1.0000E+00 1.0329E+00 5.7831E-01 1.3381E+00 5.8242E+00
 SWT_Normal           9.9999E-01 9.7062E-01 5.9113E-02 9.6760E-01 5.7274E+00
 SWT_SWTType2         1.0000E+00 1.0346E+00 5.8266E-01 1.3472E+00 5.7627E+00
 MASS                                    
 Start                2.9865E+02 2.9827E+02 2.7571E-04 2.9736E+02 1.6529E+03
 Upstream pipe        2.9157E+02 2.9065E+02 8.9605E-04 2.8855E+02 1.6268E+03
 Near pipe            2.8968E+02 2.8835E+02 1.9756E-02 2.8525E+02 1.6277E+03
 Far field            1.1656E+02 1.2040E+02 6.7409E+01 1.5598E+02 6.7888E+02
 SWT_Normal           3.1654E+03 3.0724E+03 1.8712E+02 3.0629E+03 1.8130E+04
 SWT_SWTType2         1.6807E+03 1.7388E+03 9.7927E+02 2.2642E+03 9.6853E+03
 PROCESSES                               
 Start                0.0000E+00-1.0982E+00-5.0677E-06-3.7677E+00 3.0593E+01
 Upstream pipe        0.0000E+00-1.0701E+00-1.6543E-05-3.6632E+00 2.9194E+01
 Near pipe            0.0000E+00-1.0617E+00-3.6702E-04-3.6277E+00 2.8416E+01
 Far field            0.0000E+00-4.4334E-01-1.5713E+00-2.7249E+00 1.7377E+01
 SWT_Normal           0.0000E+00-1.1314E+01-3.4824E+00-3.8285E+01 2.7617E+02
 SWT_SWTType2         0.0000E+00-6.4027E+00-2.0365E+01-3.3880E+01 1.9293E+02
 LOADS ( IN )                            
 Start                0.0000E+00 0.0000E+00 0.0000E+00 0.0000E+00 0.0000E+00
 Upstream pipe        0.0000E+00 0.0000E+00 0.0000E+00 0.0000E+00 0.0000E+00
 Near pipe            0.0000E+00 0.0000E+00 0.0000E+00 0.0000E+00 0.0000E+00
 Far field            0.0000E+00 0.0000E+00 0.0000E+00 0.0000E+00 0.0000E+00
 SWT_Normal           0.0000E+00 0.0000E+00 0.0000E+00 0.0000E+00 0.0000E+00
 SWT_SWTType2         0.0000E+00 0.0000E+00 0.0000E+00 0.0000E+00 0.0000E+00
 LOADS ( OUT )                           
 Start                0.0000E+00 0.0000E+00 0.0000E+00 0.0000E+00 0.0000E+00
 Upstream pipe        0.0000E+00 0.0000E+00 0.0000E+00 0.0000E+00 0.0000E+00
 Near pipe            0.0000E+00 0.0000E+00 0.0000E+00 0.0000E+00 0.0000E+00
 Far field            0.0000E+00 0.0000E+00 0.0000E+00 0.0000E+00 0.0000E+00
 SWT_Normal           0.0000E+00 0.0000E+00 0.0000E+00 0.0000E+00 0.0000E+00
 SWT_SWTType2         0.0000E+00 0.0000E+00 0.0000E+00 0.0000E+00 0.0000E+00
 TRANSPORT ( IN )                        
 Start                1.4521E+03 1.4516E+03 0.0000E+00 1.4502E+03 8.0021E+03
 Upstream pipe        1.4521E+03 1.4487E+03 2.0740E-03 1.4411E+03 8.0693E+03
 Near pipe            1.4521E+03 1.4466E+03 3.3634E-03 1.4338E+03 8.1273E+03
 Far field            1.4664E+03 1.5153E+03 8.5130E+02 1.9661E+03 8.5229E+03
 SWT_Normal           1.4666E+03 1.5316E+03 8.6666E+02 2.0299E+03 8.0805E+03
 SWT_SWTType2         1.4665E+03 1.5208E+03 8.6430E+02 1.9928E+03 8.3565E+03
 TRANSPORT ( OUT )                       
 Start                1.4521E+03 1.4505E+03 1.2239E-03 1.4464E+03 8.0327E+03
 Upstream pipe        1.4521E+03 1.4477E+03 3.4294E-03 1.4375E+03 8.0985E+03
 Near pipe            1.4521E+03 1.4455E+03 3.5697E-03 1.4302E+03 8.1557E+03
 Far field            1.4664E+03 1.5149E+03 8.5011E+02 1.9636E+03 8.5402E+03
 SWT_Normal           1.4665E+03 1.5208E+03 8.6430E+02 1.9928E+03 8.3565E+03
 SWT_SWTType2         1.4664E+03 1.5147E+03 8.4954E+02 1.9624E+03 8.5488E+03
 
 
 Simulation ended normal
 Execution stop : 2012/12/07 14:21:09 
