 Delft3D-WAQ version  4.5212 17-06-2011
 Only to be used by DELTARES 373                            
 (c) Deltares
 Execution start: 2012/12/07 14:20:47 
       ----------> Version number of the input file is:  4.910
       ----------> Output level of the listfile is: 9


 Model :            Water quality calculation Sobek-WQ      
                                                            

 Including file: \SBK21204\DWAQ_AC1.LIT\WORK\DELWAQ4.INP                                                                                                                                                                                                                                                                                                                                                                                                                                                                                                                                                                                                                                                                                                                                                                                                                                                                                                                                                                                                 


 Run   :                                                    
                    T0: 2010.01.01 00:00:00  (scu=       1s)

 Intermediate version absolute timer detected !
 System clock is     1 seconds !

 Closing file: \SBK21204\DWAQ_AC1.LIT\WORK\DELWAQ4.INP                                       

 Continuing on file: delwaq.inp                                                                    

 Including file: \SBK21204\DWAQ_AC1.LIT\WORK\SUBSTANC.DWQ                                                                                                                                                                                                                                                                                                                                                                                                                                                                                                                                                                                                                                                                                                                                                                                                                                                                                                                                                                                                

 Closing file: \SBK21204\DWAQ_AC1.LIT\WORK\SUBSTANC.DWQ                                      

 Continuing on file: delwaq.inp                                                                    

 Number of active constituents   :  5
 Number of inactive constituents :  0
 Total number of constituents    :  5
 Number   name
    1     Continuity          
    2     NH4                 
    3     CBOD5               
    4     CBOD5_2             
    5     OXY                 

 *********************************************************** B L O C K - 1 *****


 Including file: \SBK21204\DWAQ_AC1.LIT\WORK\DELWAQ1.INP                                                                                                                                                                                                                                                                                                                                                                                                                                                                                                                                                                                                                                                                                                                                                                                                                                                                                                                                                                                                 


 Factor between two clocks :       86400
 System clock in date-format  DDHHMMSS 
 Auxiliary timer in date-format DDHHMMSS 

 The auxiliary timer is not equal to the system timer.
 All the process fluxes will be scaled from the auxiliary timer to the system timer.

 Integration option :               15.73
 Start of simulation : 0Y-  0D- 0H- 0M- 0S.
 End of simulation   : 0Y-  6D- 1H- 0M- 0S.
 Selected option for time step size :  0
 Integration time stepsize is : 0Y-  0D- 0H-10M- 0S.

 Closing file: \SBK21204\DWAQ_AC1.LIT\WORK\DELWAQ1.INP                                       

 Continuing on file: delwaq.inp                                                                    

 Dump areas:
 option selected for input : 1
 Information from the standard input file.

 Including file: \SBK21204\DWAQ_AC1.LIT\WORK\OUTLOCWQ.DAT                                                                                                                                                                                                                                                                                                                                                                                                                                                                                                                                                                                                                                                                                                                                                                                                                                                                                                                                                                                                

 Including file: ..\work\monitor.dat                                                                                                                                                                                                                                                                                                                                                                                                                                                                                                                                                                                                                                                                                                                                                                                                                                                                                                                                                                                                                     

 Number of dump areas :    6

 Dump area :    1 : Start               
 Number of segments in area :              1
          number   segment
              1              2

 Dump area :    2 : Upstream pipe       
 Number of segments in area :              1
          number   segment
              1             15

 Dump area :    3 : Near pipe           
 Number of segments in area :              1
          number   segment
              1             17

 Dump area :    4 : Far field           
 Number of segments in area :              1
          number   segment
              1             13

 Dump area :    5 : SWT_Normal          
 Number of segments in area :             13
          number   segment
              1              1
              2              2
              3              3
              4             15
              5             16
              6             17
              7             18
              8             19
              9             20
             10             21
             11             22
             12             23
             13             24

 Dump area :    6 : SWT_SWTType2        
 Number of segments in area :             11
          number   segment
              1              4
              2              5
              3              6
              4              7
              5              8
              6              9
              7             10
              8             11
              9             12
             10             13
             11             14

 Closing file: ..\work\monitor.dat                                                           

 Continuing on file: \SBK21204\DWAQ_AC1.LIT\WORK\OUTLOCWQ.DAT                                      

 Closing file: \SBK21204\DWAQ_AC1.LIT\WORK\OUTLOCWQ.DAT                                      

 Continuing on file: delwaq.inp                                                                    

 Transects:
 option selected for input : 2
 No transects used.

 Including file: \SBK21204\DWAQ_AC1.LIT\WORK\DELWAQ2.INP                                                                                                                                                                                                                                                                                                                                                                                                                                                                                                                                                                                                                                                                                                                                                                                                                                                                                                                                                                                                 


 Monitoring  timings :
 Start time : 0Y-  0D- 0H- 0M- 0S 
 Stop time  : 0Y-  6D- 1H- 0M- 0S 
 Time step  : 0Y-  0D- 1H- 0M- 0S 


 Output      timings :
 Start time : 0Y-  0D- 0H- 0M- 0S 
 Stop time  : 0Y-  6D- 1H- 0M- 0S 
 Time step  : 0Y-  0D- 2H- 0M- 0S 


 History     timings :
 Start time : 0Y-  0D- 0H- 0M- 0S 
 Stop time  : 0Y-  6D- 1H- 0M- 0S 
 Time step  : 0Y-  0D- 0H-10M- 0S 

 Closing file: \SBK21204\DWAQ_AC1.LIT\WORK\DELWAQ2.INP                                       

 Continuing on file: delwaq.inp                                                                    

 *********************************************************** B L O C K - 2 *****


 Including file: ..\WORK\nrofsegm.dat                                                                                                                                                                                                                                                                                                                                                                                                                                                                                                                                                                                                                                                                                                                                                                                                                                                                                                                                                                                                                    


 Number of segments :             24

 Closing file: ..\WORK\nrofsegm.dat                                                          

 Continuing on file: delwaq.inp                                                                    

 NO process decomposition selected

 option selected for grid layout : 2
 Grid layout not used.

  0 blocks of time independent attribute contribution

 option for time dependent attributes   0
 NO time dependent attributes
 No first attribute set, using default 1
 No second attribute set, using default 0

 Volumes:

 Including file: flowfil.mod                                                                                                                                                                                                                                                                                                                                                                                                                                                                                                                                                                                                                                                                                                                                                                                                                                                                                                                                                                                                                             

 First  selected option   :      -2

 Closing file: flowfil.mod                                                                   

 Continuing on file: delwaq.inp                                                                    

 Information from unformatted intermediate file.
 Filename is: ..\WORK\Volume.dat                                                                                                                                                                                                                                             
 WARNING file does not exist.
 Filename: ..\WORK\Volume.dat                                                                                                                                                                                                                                             

 *********************************************************** B L O C K - 3 *****


 Including file: ..\WORK\nrofexch.dat                                                                                                                                                                                                                                                                                                                                                                                                                                                                                                                                                                                                                                                                                                                                                                                                                                                                                                                                                                                                                    


 Dimensions of the system :
 Number of exchanges 1st direction :      29
 Number of exchanges 2nd direction :       0
 Number of exchanges 3rd direction :       0
 Total number of exchanges         :      29

 Closing file: ..\WORK\nrofexch.dat                                                          

 Continuing on file: delwaq.inp                                                                    

 Number of dispersion arrays       :       1

 Including file: \SBK21204\DWAQ_AC1.LIT\WORK\DISPERSW.DAT                                                                                                                                                                                                                                                                                                                                                                                                                                                                                                                                                                                                                                                                                                                                                                                                                                                                                                                                                                                                

 Item nr:       names:
     1          Dispersion          
 

 Closing file: \SBK21204\DWAQ_AC1.LIT\WORK\DISPERSW.DAT                                      

 Continuing on file: delwaq.inp                                                                    

 Number of velocity arrays         :       0
 System dispersion velocity
   nr.      nr.      nr.   
     1        1        0
     2        1        0
     3        1        0
     4        1        0
     5        1        0

 Input option                      :       1

 Option selected for pointers      :      -1

 Including file: ..\WORK\Pointer.dat                                                                                                                                                                                                                                            

           First direction :
   Item nr.  From      To  From-1    To+1
       1       3       2      24       1
       2      15       3      16      24
       3      15      24      16      23
       4       3      24      15      23
       5      16      15      17      24
       6      17      16      18      15
       7      18      17      19      16
       8       4      21       5      20
       9       5       4       6      21
      10      14      13       0      12
      11      20      19      21      18
      12      23      22      24       0
      13       6       5       7       4
      14       7       6       8       5
      15       8       7       9       6
      16       9       8      10       7
      17      10       9      11       8
      18      11      10      12       9
      19      12      11      13      10
      20      13      12      14      11
      21       2       1       3       0
      22      19      18      20      17
      23      21      20       4      19
      24      24      23       3      22
      25      -1       1      -1       2
      26      -2      16      -2      17
      27      -3      21      -3      20
      28      -4      22      -4      23
      29      -5      14      -5      13

 Number of boundaries  :   5


 boundary  exchange    from        to
  number    number    segment    segment
      1        25        -1         1
      2        26        -2        16
      3        27        -3        21
      4        28        -4        22
      5        29        -5        14

 Size of the big matrix for fast solvers is:         53

 Dispersion:

 Closing file: ..\WORK\Pointer.dat                                                           

 Continuing on file: delwaq.inp                                                                    

 Including file: \SBK21204\DWAQ_AC1.LIT\WORK\DELWAQ3.INP                                                                                                                                                                                                                                                                                                                                                                                                                                                                                                                                                                                                                                                                                                                                                                                                                                                                                                                                                                                                 

 First  selected option   :       1
 Information from the standard input file.
 Constant values without defaults 

 Scale factors:
                 1           2           3
              1.0000E+00  1.0000E+00  1.0000E+00
 Unscaled values:
         1    1.5000E+00  0.0000E+00  0.0000E+00

 Closing file: \SBK21204\DWAQ_AC1.LIT\WORK\DELWAQ3.INP                                       

 Continuing on file: delwaq.inp                                                                    

 Including file: ..\work\disperx.dat                                                                                                                                                                                                                                                                                                                                                                                                                                                                                                                                                                                                                                                                                                                                                                                                                                                                                                                                                                                                                     
 Second selected option   :       1

 First  direction:
 Constant values without defaults 

 Scale factors:
                 1
              1.0000E+00
 Unscaled values:
         1    0.0000E+00
         2    0.0000E+00
         3    0.0000E+00
         4    0.0000E+00
         5    0.0000E+00
         6    0.0000E+00
         7    0.0000E+00
         8    0.0000E+00
         9    0.0000E+00
        10    0.0000E+00
        11    0.0000E+00
        12    0.0000E+00
        13    0.0000E+00
        14    0.0000E+00
        15    0.0000E+00
        16    0.0000E+00
        17    0.0000E+00
        18    0.0000E+00
        19    0.0000E+00
        20    0.0000E+00
        21    0.0000E+00
        22    0.0000E+00
        23    0.0000E+00
        24    0.0000E+00
        25    0.0000E+00
        26    0.0000E+00
        27    0.0000E+00
        28    0.0000E+00
        29    0.0000E+00

 Area:

 Closing file: ..\work\disperx.dat                                                           

 Continuing on file: delwaq.inp                                                                    

 Including file: flowfil.mod                                                                                                                                                                                                                                                                                                                                                                                                                                                                                                                                                                                                                                                                                                                                                                                                                                                                                                                                                                                                                             

 First  selected option   :      -2

 Closing file: flowfil.mod                                                                   

 Continuing on file: delwaq.inp                                                                    

 Information from unformatted intermediate file.
 Filename is: ..\WORK\Area.dat                                                                                                                                                                                                                                               
 WARNING file does not exist.
 Filename: ..\WORK\Area.dat                                                                                                                                                                                                                                               

 Flows:

 Including file: flowfil.mod                                                                                                                                                                                                                                                                                                                                                                                                                                                                                                                                                                                                                                                                                                                                                                                                                                                                                                                                                                                                                             

 First  selected option   :      -2

 Closing file: flowfil.mod                                                                   

 Continuing on file: delwaq.inp                                                                    

 Information from unformatted intermediate file.
 Filename is: ..\WORK\Flow.dat                                                                                                                                                                                                                                               
 WARNING file does not exist.
 Filename: ..\WORK\Flow.dat                                                                                                                                                                                                                                               

 Lengths:
 Option for lengths          :      1
 Lengths variable over the area.

 First  selected option   :       0

 Information from unformatted intermediate file.
 Filename is: ..\WORK\Length.dat                                                                                                                                                                                                                                             
 WARNING file does not exist.
 Filename: ..\WORK\Length.dat                                                                                                                                                                                                                                             

 *********************************************************** B L O C K - 4 *****


 Boundary-IDs:       boundary-names:                         boundary-types:


 Including file: ..\WORK\Boundwq.id                                                                                                                                                                                                                                                                                                                                                                                                                                                                                                                                                                                                                                                                                                                                                                                                                                                                                                                                                                                                                      
n1                      1                                   Upstream            
nL1                     2                                   CSO                 
n7                      3                                   Lateral inflow      
n9                      4                                   Flush               
n21                     5                                   Boundary Flow       
 
 Number of different boundary types:    5
 Type:  Type-string
     1  Upstream            
     2  CSO                 
     3  Lateral inflow      
     4  Flush               
     5  Boundary Flow       
 

 Closing file: ..\WORK\Boundwq.id                                                            

 Continuing on file: delwaq.inp                                                                    

 Including file: ..\work\tatcherharlemen.wq                                                                                                                                                                                                                                                                                                                                                                                                                                                                                                                                                                                                                                                                                                                                                                                                                                                                                                                                                                                                              

 Time lag option:  0
 No time lags

 Boundary concentrations

 Closing file: ..\work\tatcherharlemen.wq                                                    

 Continuing on file: delwaq.inp                                                                    

 Including file: \SBK21204\DWAQ_AC1.LIT\WORK\BOUNDWQ.TYP                                                                                                                                                                                                                                                                                                                                                                                                                                                                                                                                                                                                                                                                                                                                                                                                                                                                                                                                                                                                 

 BLOCKED per ITEM:
 Input BOUNDARIES nr:    1 is BOUNDARIES type:    5 with type: Boundary Flow        and local substitution: Boundary Flow       

 CONCENTRATIONs within the item blocks:
 Input CONCENTR.  nr:    1 is CONCENTR.  nr:    2 with ID  : NH4                  and local substitution: NH4                 
 Input CONCENTR.  nr:    2 is CONCENTR.  nr:    3 with ID  : CBOD5                and local substitution: CBOD5               
 Input CONCENTR.  nr:    3 is CONCENTR.  nr:    4 with ID  : CBOD5_2              and local substitution: CBOD5_2             
 Input CONCENTR.  nr:    4 is CONCENTR.  nr:    5 with ID  : OXY                  and local substitution: OXY                 
 Input CONCENTR.  nr:    5 is CONCENTR.  nr:    1 with ID  : Continuity           and local substitution: Continuity          
 
 Column:  1 contains: NH4                                      Status: used    
 Column:  2 contains: CBOD5                                    Status: used    
 Column:  3 contains: CBOD5_2                                  Status: used    
 Column:  4 contains: OXY                                      Status: used    
 Column:  5 contains: Continuity                               Status: used    

 DATA grouped in         1 blocks of         5 Substance 
 Constant values in this block.
 Substance      2           3           4           5           1
 boundary     NH4         CBOD5       CBOD5_2     OXY         Continuity  
         5    1.0000E+00  0.0000E+00  1.0000E+00  5.5000E+00  1.0000E+00

 ====> input item completed <==== 



 BLOCKED per ITEM:
 Input BOUNDARIES nr:    1 is BOUNDARIES type:    3 with type: Lateral inflow       and local substitution: Lateral inflow      

 CONCENTRATIONs within the item blocks:
 Input CONCENTR.  nr:    1 is CONCENTR.  nr:    2 with ID  : NH4                  and local substitution: NH4                 
 Input CONCENTR.  nr:    2 is CONCENTR.  nr:    3 with ID  : CBOD5                and local substitution: CBOD5               
 Input CONCENTR.  nr:    3 is CONCENTR.  nr:    4 with ID  : CBOD5_2              and local substitution: CBOD5_2             
 Input CONCENTR.  nr:    4 is CONCENTR.  nr:    5 with ID  : OXY                  and local substitution: OXY                 
 Input CONCENTR.  nr:    5 is CONCENTR.  nr:    1 with ID  : Continuity           and local substitution: Continuity          
 
 Column:  1 contains: NH4                                      Status: used    
 Column:  2 contains: CBOD5                                    Status: used    
 Column:  3 contains: CBOD5_2                                  Status: used    
 Column:  4 contains: OXY                                      Status: used    
 Column:  5 contains: Continuity                               Status: used    

 DATA grouped in         1 blocks of         5 Substance 
 Constant values in this block.
 Substance      2           3           4           5           1
 boundary     NH4         CBOD5       CBOD5_2     OXY         Continuity  
         3    5.5000E+00  6.0000E+01  4.0000E+01  6.5000E+00  1.0000E+00

 ====> input item completed <==== 



 BLOCKED per ITEM:
 Input BOUNDARIES nr:    1 is BOUNDARIES type:    2 with type: CSO                  and local substitution: CSO                 

 CONCENTRATIONs within the item blocks:
 Input CONCENTR.  nr:    1 is CONCENTR.  nr:    1 with ID  : Continuity           and local substitution: Continuity          
 Input CONCENTR.  nr:    2 is CONCENTR.  nr:    2 with ID  : NH4                  and local substitution: NH4                 
 Input CONCENTR.  nr:    3 is CONCENTR.  nr:    3 with ID  : CBOD5                and local substitution: CBOD5               
 Input CONCENTR.  nr:    4 is CONCENTR.  nr:    4 with ID  : CBOD5_2              and local substitution: CBOD5_2             
 Input CONCENTR.  nr:    5 is CONCENTR.  nr:    5 with ID  : OXY                  and local substitution: OXY                 
 
 Column:  1 contains: Continuity                               Status: used    
 Column:  2 contains: NH4                                      Status: used    
 Column:  3 contains: CBOD5                                    Status: used    
 Column:  4 contains: CBOD5_2                                  Status: used    
 Column:  5 contains: OXY                                      Status: used    

 DATA grouped in         1 blocks of         5 Substance 
 Constant values in this block.
 Substance      1           2           3           4           5
 boundary     Continuity  NH4         CBOD5       CBOD5_2     OXY         
         2    1.0000E+00  2.0000E+00  2.0000E+01  1.0000E+01  6.0000E+00

 ====> input item completed <==== 



 Closing file: \SBK21204\DWAQ_AC1.LIT\WORK\BOUNDWQ.TYP                                       

 Continuing on file: delwaq.inp                                                                    

 Including file: \SBK21204\DWAQ_AC1.LIT\WORK\BOUNDWQ.DAT                                                                                                                                                                                                                                                                                                                                                                                                                                                                                                                                                                                                                                                                                                                                                                                                                                                                                                                                                                                                 

 BLOCKED per ITEM:
 Input BOUNDARIES nr:    1 is BOUNDARIES nr:    1 with ID  : n1                   and local substitution: n1                  
 Absolute times (YYYY/MM/DD;HH:MM:SS) expected in next time function block.

 CONCENTRATIONs within the item blocks:
 Input CONCENTR.  nr:    1 is CONCENTR.  nr:    1 with ID  : Continuity           and local substitution: Continuity          
 Input CONCENTR.  nr:    2 is CONCENTR.  nr:    2 with ID  : NH4                  and local substitution: NH4                 
 Input CONCENTR.  nr:    3 is CONCENTR.  nr:    3 with ID  : CBOD5                and local substitution: CBOD5               
 Input CONCENTR.  nr:    4 is CONCENTR.  nr:    4 with ID  : CBOD5_2              and local substitution: CBOD5_2             
 Input CONCENTR.  nr:    5 is CONCENTR.  nr:    5 with ID  : OXY                  and local substitution: OXY                 
 
 Column:  1 contains: Continuity                               Status: used    
 Column:  2 contains: NH4                                      Status: used    
 Column:  3 contains: CBOD5                                    Status: used    
 Column:  4 contains: CBOD5_2                                  Status: used    
 Column:  5 contains: OXY                                      Status: used    

 DATA grouped in         1 blocks of         5 Substance 

 Number of breakpoints with full data:    6
 breakpoint       1 :         0
 Substance      1           2           3           4           5
 boundary     Continuity  NH4         CBOD5       CBOD5_2     OXY         
         1    1.0000E+00  1.0000E+00  0.0000E+00  1.0000E+00  5.5000E+00
 breakpoint       2 :    777600
 Substance      1           2           3           4           5
 boundary     Continuity  NH4         CBOD5       CBOD5_2     OXY         
         1    1.0000E+00  1.0000E+00  0.0000E+00  1.0000E+00  5.5000E+00
 breakpoint       3 :   2678400
 Substance      1           2           3           4           5
 boundary     Continuity  NH4         CBOD5       CBOD5_2     OXY         
         1    1.0000E+00  1.0000E+00  0.0000E+00  1.0000E+00  5.5000E+00
 breakpoint       4 :   2851200
 Substance      1           2           3           4           5
 boundary     Continuity  NH4         CBOD5       CBOD5_2     OXY         
         1    1.0000E+00  2.0000E+00  8.8000E-01  1.0000E+00  6.5000E+00
 breakpoint       5 :   3024000
 Substance      1           2           3           4           5
 boundary     Continuity  NH4         CBOD5       CBOD5_2     OXY         
         1    1.0000E+00  1.2000E+00  4.5000E-01 -9.9900E+02  7.5000E+00
 breakpoint       6 :   3456000
 Substance      1           2           3           4           5
 boundary     Continuity  NH4         CBOD5       CBOD5_2     OXY         
         1    1.0000E+00  1.0000E+00  1.0000E-01  1.0000E+00  6.9000E+00

 ====> input item completed <==== 



 BLOCKED per ITEM:
 Input BOUNDARIES nr:    1 is BOUNDARIES nr:    2 with ID  : nL1                  and local substitution: nL1                 

 CONCENTRATIONs within the item blocks:
 Input CONCENTR.  nr:    1 is CONCENTR.  nr:    2 with ID  : NH4                  and local substitution: NH4                 
 Input CONCENTR.  nr:    2 is CONCENTR.  nr:    3 with ID  : CBOD5                and local substitution: CBOD5               
 Input CONCENTR.  nr:    3 is CONCENTR.  nr:    4 with ID  : CBOD5_2              and local substitution: CBOD5_2             
 Input CONCENTR.  nr:    4 is CONCENTR.  nr:    5 with ID  : OXY                  and local substitution: OXY                 
 Input CONCENTR.  nr:    5 is CONCENTR.  nr:    1 with ID  : Continuity           and local substitution: Continuity          
 
 Column:  1 contains: NH4                                      Status: used    
 Column:  2 contains: CBOD5                                    Status: used    
 Column:  3 contains: CBOD5_2                                  Status: used    
 Column:  4 contains: OXY                                      Status: used    
 Column:  5 contains: Continuity                               Status: used    

 DATA grouped in         1 blocks of         5 Substance 
 Constant values in this block.
 Substance      2           3           4           5           1
 boundary     NH4         CBOD5       CBOD5_2     OXY         Continuity  
         2    5.5000E+00  6.0000E+01  4.0000E+01  6.5000E+00  1.0000E+00

 ====> input item completed <==== 



 BLOCKED per ITEM:
 Input BOUNDARIES nr:    1 is BOUNDARIES nr:    5 with ID  : n21                  and local substitution: n21                 
 Absolute times (YYYY/MM/DD;HH:MM:SS) expected in next time function block.

 CONCENTRATIONs within the item blocks:
 Input CONCENTR.  nr:    1 is CONCENTR.  nr:    1 with ID  : Continuity           and local substitution: Continuity          
 Input CONCENTR.  nr:    2 is CONCENTR.  nr:    2 with ID  : NH4                  and local substitution: NH4                 
 Input CONCENTR.  nr:    3 is CONCENTR.  nr:    3 with ID  : CBOD5                and local substitution: CBOD5               
 Input CONCENTR.  nr:    4 is CONCENTR.  nr:    4 with ID  : CBOD5_2              and local substitution: CBOD5_2             
 Input CONCENTR.  nr:    5 is CONCENTR.  nr:    5 with ID  : OXY                  and local substitution: OXY                 

 Linear interpolation is selected !
 
 Column:  1 contains: Continuity                               Status: used    
 Column:  2 contains: NH4                                      Status: used    
 Column:  3 contains: CBOD5                                    Status: used    
 Column:  4 contains: CBOD5_2                                  Status: used    
 Column:  5 contains: OXY                                      Status: used    

 Closing file: \SBK21204\DWAQ_AC1.LIT\WORK\BOUNDWQ.DAT                                       

 Continuing on file: delwaq.inp                                                                    

 Including file: ..\work\em2wq.dat                                                                                                                                                                                                                                                                                                                                                                                                                                                                                                                                                                                                                                                                                                                                                                                                                                                                                                                                                                                                                       

 Closing file: ..\work\em2wq.dat                                                             

 Continuing on file: delwaq.inp                                                                    

 Including file: \SBK21204\FIXED\RSDUMMY.DUM                                                                                                                                                                                                                                                                                                                                                                                                                                                                                                                                                                                                                                                                                                                                                                                                                                                                                                                                                                                                             

 Closing file: \SBK21204\FIXED\RSDUMMY.DUM                                                   

 Continuing on file: delwaq.inp                                                                    

 DATA grouped in         1 blocks of         5 Substance 

 Number of breakpoints with full data:    6
 breakpoint       1 :         0
 Substance      1           2           3           4           5
 boundary     Continuity  NH4         CBOD5       CBOD5_2     OXY         
         5    1.0000E+00  1.0000E+00  0.0000E+00  1.0000E+00  5.5000E+00
 breakpoint       2 :    777600
 Substance      1           2           3           4           5
 boundary     Continuity  NH4         CBOD5       CBOD5_2     OXY         
         5    1.0000E+00  1.0000E+00  0.0000E+00  1.0000E+00  5.5000E+00
 breakpoint       3 :   2678400
 Substance      1           2           3           4           5
 boundary     Continuity  NH4         CBOD5       CBOD5_2     OXY         
         5    1.0000E+00  1.0000E+00  0.0000E+00  1.0000E+00  5.5000E+00
 breakpoint       4 :   2851200
 Substance      1           2           3           4           5
 boundary     Continuity  NH4         CBOD5       CBOD5_2     OXY         
         5    1.0000E+00  2.0000E+00  8.8000E-01  1.0000E+00  6.5000E+00
 breakpoint       5 :   3024000
 Substance      1           2           3           4           5
 boundary     Continuity  NH4         CBOD5       CBOD5_2     OXY         
         5    1.0000E+00  1.2000E+00  4.5000E-01 -9.9900E+02  7.5000E+00
 breakpoint       6 :   3456000
 Substance      1           2           3           4           5
 boundary     Continuity  NH4         CBOD5       CBOD5_2     OXY         
         5    1.0000E+00  1.0000E+00  1.0000E-01  1.0000E+00  6.9000E+00

 ====> input item completed <==== 



 *********************************************************** B L O C K - 5 *****


 Including file: ..\WORK\nrofDWL.dat                                                                                                                                                                                                                                                                                                                                                                                                                                                                                                                                                                                                                                                                                                                                                                                                                                                                                                                                                                                                                     

 No waste loads 

 Closing file: ..\WORK\nrofDWL.dat                                                           

 Continuing on file: delwaq.inp                                                                    

 Including file: ..\WORK\Loadswq.id                                                                                                                                                                                                                                                                                                                                                                                                                                                                                                                                                                                                                                                                                                                                                                                                                                                                                                                                                                                                                      

 Closing file: ..\WORK\Loadswq.id                                                            

 Continuing on file: delwaq.inp                                                                    

 Including file: \SBK21204\DWAQ_AC1.LIT\WORK\LOADSWQ.TYP                                                                                                                                                                                                                                                                                                                                                                                                                                                                                                                                                                                                                                                                                                                                                                                                                                                                                                                                                                                                 

 Closing file: \SBK21204\DWAQ_AC1.LIT\WORK\LOADSWQ.TYP                                       

 Continuing on file: delwaq.inp                                                                    

 Including file: \SBK21204\DWAQ_AC1.LIT\WORK\LOADSWQ.DAT                                                                                                                                                                                                                                                                                                                                                                                                                                                                                                                                                                                                                                                                                                                                                                                                                                                                                                                                                                                                 

 Closing file: \SBK21204\DWAQ_AC1.LIT\WORK\LOADSWQ.DAT                                       

 Continuing on file: delwaq.inp                                                                    

 *********************************************************** B L O C K - 6 *****

 Input constant   nr:    1 is constant   nr:    1 with ID  : Iteration report    
 constant values in this block.
 values         1
 constants    Iteration   
         1    0.0000E+00

 ====> input item completed <==== 



 Including file: \SBK21204\DWAQ_AC1.LIT\WORK\PROCESS.DWQ                                                                                                                                                                                                                                                                                                                                                                                                                                                                                                                                                                                                                                                                                                                                                                                                                                                                                                                                                                                                 
 Input constant   nr:    1 is constant   nr:    2 with ID  : ACTIVE_BODCOD       
 Input constant   nr:    2 is constant   nr:    3 with ID  : ACTIVE_CalTau       
 Input constant   nr:    3 is constant   nr:    4 with ID  : ACTIVE_DynDepth     
 Input constant   nr:    4 is constant   nr:    5 with ID  : ACTIVE_Nitrif_NH4   
 Input constant   nr:    5 is constant   nr:    6 with ID  : ACTIVE_Prod_TEWOR   
 Input constant   nr:    6 is constant   nr:    7 with ID  : ACTIVE_RearOXY      
 Input constant   nr:    7 is constant   nr:    8 with ID  : ACTIVE_ResTim       
 Input constant   nr:    8 is constant   nr:    9 with ID  : ACTIVE_S_CBOD51     
 Input constant   nr:    9 is constant   nr:   10 with ID  : ACTIVE_S_CBOD52     
 Input constant   nr:   10 is constant   nr:   11 with ID  : ACTIVE_SaturOXY     
 Input constant   nr:   11 is constant   nr:   12 with ID  : ACTIVE_SedOXYDem    
 Input constant   nr:   12 is constant   nr:   13 with ID  : ACTIVE_TotDepth     
 constant values in this block.
 values         2           3           4           5           6
 constants    ACTIVE_BOD  ACTIVE_Cal  ACTIVE_Dyn  ACTIVE_Nit  ACTIVE_Pro  
         1    0.0000E+00  0.0000E+00  0.0000E+00  0.0000E+00  0.0000E+00
 values         7           8           9          10          11
 constants    ACTIVE_Rea  ACTIVE_Res  ACTIVE_S_C  ACTIVE_S_C  ACTIVE_Sat  
         1    0.0000E+00  0.0000E+00  0.0000E+00  0.0000E+00  0.0000E+00
 values        12          13
 constants    ACTIVE_Sed  ACTIVE_Tot  
         1    0.0000E+00  0.0000E+00

 ====> input item completed <==== 



 Closing file: \SBK21204\DWAQ_AC1.LIT\WORK\PROCESS.DWQ                                       

 Continuing on file: delwaq.inp                                                                    

 Including file: \SBK21204\DWAQ_AC1.LIT\WORK\CONSTANT.DWQ                                                                                                                                                                                                                                                                                                                                                                                                                                                                                                                                                                                                                                                                                                                                                                                                                                                                                                                                                                                                
 Input constant   nr:    1 is constant   nr:   14 with ID  : TcNit               
 Input constant   nr:    2 is constant   nr:   15 with ID  : COXNIT              
 Input constant   nr:    3 is constant   nr:   16 with ID  : RcNit               
 Input constant   nr:    4 is constant   nr:   17 with ID  : OOXNIT              
 Input constant   nr:    5 is constant   nr:   18 with ID  : fTEWORBOD           
 Input constant   nr:    6 is constant   nr:   19 with ID  : fTEWOROXY           
 Input constant   nr:    7 is constant   nr:   20 with ID  : fTEWORNH4           
 Input constant   nr:    8 is constant   nr:   21 with ID  : RcBOD               
 Input constant   nr:    9 is constant   nr:   22 with ID  : RcBOD_2             
 Input constant   nr:   10 is constant   nr:   23 with ID  : TcBOD               
 Input constant   nr:   11 is constant   nr:   24 with ID  : COXBOD              
 Input constant   nr:   12 is constant   nr:   25 with ID  : OOXBOD              
 Input constant   nr:   13 is constant   nr:   26 with ID  : CFLBOD              
 Input constant   nr:   14 is constant   nr:   27 with ID  : O2FuncBOD           
 Input constant   nr:   15 is constant   nr:   28 with ID  : BOD5                
 Input constant   nr:   16 is constant   nr:   29 with ID  : BODu                
 Input constant   nr:   17 is constant   nr:   30 with ID  : VSedBOD5            
 Input constant   nr:   18 is constant   nr:   31 with ID  : VSedBOD5_2          
 Input constant   nr:   19 is constant   nr:   32 with ID  : Salinity            
 Input constant   nr:   20 is constant   nr:   33 with ID  : SWRear              
 Input constant   nr:   21 is constant   nr:   34 with ID  : KLRear              
 Input constant   nr:   22 is constant   nr:   35 with ID  : TCRear              
 Input constant   nr:   23 is constant   nr:   36 with ID  : fSOD                
 Input constant   nr:   24 is constant   nr:   37 with ID  : RcSOD               
 constant values in this block.
 values        14          15          16          17          18
 constants    TcNit       COXNIT      RcNit       OOXNIT      fTEWORBOD   
         1    1.0638E+00  1.0000E+00  1.0000E-01  5.0000E+00  0.0000E+00
 values        19          20          21          22          23
 constants    fTEWOROXY   fTEWORNH4   RcBOD       RcBOD_2     TcBOD       
         1    0.0000E+00  0.0000E+00  3.0000E-01  1.5000E-01  1.0400E+00
 values        24          25          26          27          28
 constants    COXBOD      OOXBOD      CFLBOD      O2FuncBOD   BOD5        
         1    1.0000E+00  5.0000E+00  3.0000E-01  0.0000E+00  0.0000E+00
 values        29          30          31          32          33
 constants    BODu        VSedBOD5    VSedBOD5_2  Salinity    SWRear      
         1    0.0000E+00  1.0000E-01  1.0000E-01  0.0000E+00  1.0000E+00
 values        34          35          36          37
 constants    KLRear      TCRear      fSOD        RcSOD       
         1    1.0000E+00  1.0160E+00  0.0000E+00  1.1200E-01

 ====> input item completed <==== 


  
 Input function   nr:    1 is function   nr:    1 with ID  : Salinity            

 Time function is linearly interpolated.

 number of breakpoints with full data:    3
 breakpoint   1 :         0
 values         1
 functions    Salinity    
         1    0.0000E+00
 breakpoint   2 :    777600
 values         1
 functions    Salinity    
         1    0.0000E+00
 breakpoint   3 :  38275200
 values         1
 functions    Salinity    
         1    1.0000E+00

 ====> input item completed <==== 


  
 Input function   nr:    1 is function   nr:    2 with ID  : TCRear              

 Closing file: \SBK21204\DWAQ_AC1.LIT\WORK\CONSTANT.DWQ                                      

 Continuing on file: delwaq.inp                                                                    

 Including file: ..\work\param.dat                                                                                                                                                                                                                                                                                                                                                                                                                                                                                                                                                                                                                                                                                                                                                                                                                                                                                                                                                                                                                       

 number of breakpoints with full data:    2
 breakpoint   1 : -31535999
 values         2
 functions    TCRear      
         1    1.0470E+00
 breakpoint   2 :  31536000
 values         2
 functions    TCRear      
         1    1.0470E+00

 ====> input item completed <==== 


  
 Input parameter  nr:    1 is parameter  nr:    1 with ID  : Xseg                

 Input will be given for all         24 segments.

 parameter s ordered in groups of segments per parameter .
 constant values in this block.
 segments       1
 parameters   Xseg        
         1    3.3684E+01
         2    1.2405E+02
         3    2.4527E+02
         4    1.0209E+03
         5    1.0854E+03
         6    1.1981E+03
         7    1.2497E+03
         8    1.3301E+03
         9    1.4332E+03
        10    1.5362E+03
        11    1.6393E+03
        12    1.7423E+03
        13    1.8219E+03
        14    1.9485E+03
        15    3.2217E+02
        16    4.5000E+02
        17    5.1860E+02
        18    6.3185E+02
        19    7.0271E+02
        20    8.2473E+02
        21    9.0911E+02
        22    3.0256E+02
        23    2.9869E+02
        24    2.9603E+02

 ====> input item completed <==== 


  
 Input parameter  nr:    1 is parameter  nr:    2 with ID  : Yseg                

 Input will be given for all         24 segments.

 parameter s ordered in groups of segments per parameter .
 constant values in this block.
 segments       2
 parameters   Yseg        
         1   -1.9671E-01
         2   -7.2447E-01
         3   -1.4324E+00
         4    0.0000E+00
         5    0.0000E+00
         6    0.0000E+00
         7    0.0000E+00
         8    0.0000E+00
         9    0.0000E+00
        10    0.0000E+00
        11    0.0000E+00
        12    0.0000E+00
        13    0.0000E+00
        14    0.0000E+00
        15   -1.6480E+00
        16   -1.3225E+00
        17   -1.1478E+00
        18   -8.5945E-01
        19   -6.7902E-01
        20   -3.6833E-01
        21   -1.5346E-01
        22    1.3484E+02
        23    7.0542E+01
        24    2.6476E+01

 ====> input item completed <==== 



 Closing file: ..\work\param.dat                                                             

 Continuing on file: delwaq.inp                                                                    

 Including file: \SBK21204\FIXED\AC2A.QWC                                                                                                                                                                                                                                                                                                                                                                                                                                                                                                                                                                                                                                                                                                                                                                                                                                                                                                                                                                                                                
 Input constant   nr:    1 is constant   nr:   38 with ID  : VWIND               
 Input constant   nr:    2 is constant   nr:   39 with ID  : WINDDIR             
 constant values in this block.
 values        38          39
 constants    VWIND       WINDDIR     
         1    3.0000E+00  0.0000E+00

 ====> input item completed <==== 



 Closing file: \SBK21204\FIXED\AC2A.QWC                                                      

 Continuing on file: delwaq.inp                                                                    

 Including file: \SBK21204\FIXED\AC2A.QSC                                                                                                                                                                                                                                                                                                                                                                                                                                                                                                                                                                                                                                                                                                                                                                                                                                                                                                                                                                                                                
 Input constant   nr:    1 is constant   nr:   40 with ID  : TEMP                
 Input constant   nr:    2 is constant   nr:   41 with ID  : RAD                 
 constant values in this block.
 values        40          41
 constants    TEMP        RAD         
         1    1.8000E+01  5.0000E+01

 ====> input item completed <==== 



 Closing file: \SBK21204\FIXED\AC2A.QSC                                                      

 Continuing on file: delwaq.inp                                                                    
  
 Input seg-funct. nr:    1 is seg-funct. nr:    1 with ID  : Chezy               
 Input seg-funct. nr:    2 is seg-funct. nr:    2 with ID  : Surf                
 Input seg-funct. nr:    3 is seg-funct. nr:    3 with ID  : Velocity            
 Input seg-funct. nr:    4 is seg-funct. nr:    4 with ID  : Width               

 Input will be given for all         24 segments.

 seg-funct.s ordered in groups of segments per seg-funct..
 Input comes from binary file: ..\work\segfun.dat                                                                                                                                                                                                                                              
 info comes at runtime from binary file: ..\work\segfun.dat

 ====> input item completed <==== 



 Total number of constants        :   41

 Total number of parameters       :    2

 Total number of functions        :    2

 Total number of segment functions:    4

 *********************************************************** B L O C K - 7 *****


 Initials for passive substances are in mass/m2

 Including file: ..\work\wq2.dat                                                                                                                                                                                                                                                                                                                                                                                                                                                                                                                                                                                                                                                                                                                                                                                                                                                                                                                                                                                                                         

 Option selected for initials    :   0

 Information from unformatted intermediate file.
 Filename is: ..\work\wqres.res                                                                                                                                                                                                                                              
 WARNING file does not exist.
 Filename: ..\work\wqres.res                                                                                                                                                                                                                                              

 Closing file: ..\work\wq2.dat                                                               

 Continuing on file: delwaq.inp                                                                    

 *********************************************************** B L O C K - 8 *****



 Option selected for output specification :   1
 Information from the standard input file.

 Specification of monitor output

 Default output for this file

 Specification of grid dump output

 No output for this file

 Specification of history output

 Including file: hisvar.dat                                                                                                                                                                                                                                                                                                                                                                                                                                                                                                                                                                                                                                                                                                                                                                                                                                                                                                                                                                                                                              

 All substances plus extra output variables

 Including file: \SBK21204\DWAQ_AC1.LIT\WORK\OUTPUT.DWQ                                                                                                                                                                                                                                                                                                                                                                                                                                                                                                                                                                                                                                                                                                                                                                                                                                                                                                                                                                                                  

 (      9) number of output variables specified

 Number           Identification        Weight variable
       1           Winddir               volume              
       2           Vwind                 volume              
       3           Temp                  volume              
       4           Rad                   volume              
       5           Volume                                    
       6           Surf                                      
       7           ResTim                volume              
       8           SatPercOXY            volume              
       9           SaturOXY              volume              

 Specification of map output

 Closing file: \SBK21204\DWAQ_AC1.LIT\WORK\OUTPUT.DWQ                                        

 Continuing on file: hisvar.dat                                                                    

 Closing file: hisvar.dat                                                                    

 Continuing on file: delwaq.inp                                                                    

 Including file: mapvar.dat                                                                                                                                                                                                                                                                                                                                                                                                                                                                                                                                                                                                                                                                                                                                                                                                                                                                                                                                                                                                                              

 Default output for this file

 Closing file: mapvar.dat                                                                    

 Continuing on file: delwaq.inp                                                                    

 Binary history file switched on

 Binary map file switched on

 NEFIS history file switched off

 NEFIS map file switched off
 
  Determining the place of the output variables
 
        Winddir             ; Using constant nr          39
        Vwind               ; Using constant nr          38
        Temp                ; Using constant nr          40
        Rad                 ; Using constant nr          41
        Volume              ; Using DELWAQ VOLUME
        Surf                ; Using segment function nr           2
   INFO:ResTim              ; NOT FOUND, delwaq1p will detect variables from process library
   INFO:SatPercOXY          ; NOT FOUND, delwaq1p will detect variables from process library
   INFO:SaturOXY            ; NOT FOUND, delwaq1p will detect variables from process library
        volume              ; Using DELWAQ VOLUME
        volume              ; Using DELWAQ VOLUME
        volume              ; Using DELWAQ VOLUME
        volume              ; Using DELWAQ VOLUME
        volume              ; Using DELWAQ VOLUME
        volume              ; Using DELWAQ VOLUME
        volume              ; Using DELWAQ VOLUME
  Not all variables available.
  Number off missing variables :           3

 *********************************************************** B L O C K - 9 *****


 Output operations
Number of periods defined:     0
 

 *********************************************************** B L O C K -10 *****



 Messages presented in this .lst file:

 Number of WARNINGS            :  5
 Number of ERRORS during input :  0
 


 Messages presented including .lsp file:
 Number of WARNINGS            :     5

 Number of ERRORS during input :     0

 Parallel processing with   1 processor(s)

 total real      array space:       8057
 total integer   array space:       5008
 total character array space:        801
 grand total in 4-byte words:      13866 =   0-GB   0-MB  55-KB 464-Byte.
 Execution stop : 2012/12/07 14:20:48 
