07-05 15:56 root         INFO     Converting from Sobek3 to D-Flow FM: Flow1D.md1d
07-05 15:56 sobek3Reader INFO     Reading Sobek files
07-05 15:56 sobek3Reader INFO     Number of Nodes     :14
07-05 15:56 sobek3Reader INFO     Number of Branches  :10
07-05 15:56 sobek3Reader INFO     Number of Boundaries:11
07-05 15:56 converter    INFO     Converting
07-05 15:56 FMWriter     INFO     Writing FM files
07-05 15:56 UgridWriter  INFO     Writing Ugrid file
07-05 15:56 root         INFO     Finished
