  Using options from ini file : delwaq.ini
 Delft3D-WAQ version  4.5204 16-03-2009
 Only to be used by SOBEK licensee                          
 (c) Deltares
 Execution start: 2013/12/03 14:20:50 
 total real    array space:       1307
 total integer array space:       1953
 total CHARACTER*20  space:        201
1                    Fraction calculation Sobek-WQ           
                                                             

                                                             
                     T0: 2012.01.01 00:00:00  (scu=       1s)

                     Initialisation from system file completed.
 partit: noseg,nolay=           7           1 , nseghr=           7
 partit: npart=  1, assigning all segments to part "npart", none to other parts
 
 CONSTANT ON UNIT:        22, READING: delwaq-dispersi.wrk                                                                                                                                                                                                                                            
 SIMULATION TIME :  0D  0H  0M  0S ! 
 TIME IN FILE    :  0D  0H  0M  0S ! 
 CONSTANT ON UNIT:        26, READING: ..\work\Length.dat                                                                                                                                                                                                                                             
 SIMULATION TIME :  0D  0H  0M  0S ! 
 TIME IN FILE    :  0D  0H  0M  0S ! 
  Closure error correction disabled
 
 Initialising numerical options for method 15...18
 
 Preconditioner switch not found, using default
 switch = 3, corrections based on lower and upper 
 
 Maximum number of iterations not found, using default
 Maximum number of iterations set to :   100
 
 Relative tolerance not found, using default
 Relative tolerance set to :0.100E-06
 
 Scaling switch not found, using default
 switch = 1, scaling is switched on
 
 Iteration report switch found in input
 switch = 0, iteration report is switched off
 
 
 Extra functionality DLWQTR
 End extra functionality DLWQTR
1
                                             Fraction calculation Sobek-WQ           
                                                                                     
                                                                                     
                                             T0: 2012.01.01 00:00:00  (scu=       1s)
   0.00% Completed


 DUMP OF INTERMEDIATE RESULTS IN SELECTED SEGMENTS
  TIME =   0D  0H  0M  0S .
 
 TOTAL MASS IN SYSTEM 3.2554E+03 3.2554E+03 0.0000E+00 0.0000E+00
 CHANGES BY PROCESSES 0.0000E+00 0.0000E+00 0.0000E+00 0.0000E+00
 CHANGES BY LOADS     0.0000E+00 0.0000E+00 0.0000E+00 0.0000E+00
 BOUNDARY INFLOWS     0.0000E+00 0.0000E+00 0.0000E+00 0.0000E+00
 BOUNDARY OUTFLOWS    0.0000E+00 0.0000E+00 0.0000E+00 0.0000E+00
                      Check      Initial    Lateral in Boundary F 
                                            flow       low        
 CONCENTRATION                           
 SWT_Normal           1.0000E+00 1.0000E+00 0.0000E+00 0.0000E+00
 
   1.04% Completed


 DUMP OF INTERMEDIATE RESULTS IN SELECTED SEGMENTS
  TIME =   0D  1H  0M  0S .
 
 TOTAL MASS IN SYSTEM 3.3042E+03 2.7191E+02 8.6262E+02 2.1697E+03
 CHANGES BY PROCESSES 0.0000E+00 0.0000E+00 0.0000E+00 0.0000E+00
 CHANGES BY LOADS     0.0000E+00 0.0000E+00 0.0000E+00 0.0000E+00
 BOUNDARY INFLOWS     5.4000E+03 0.0000E+00 1.8000E+03 3.6000E+03
 BOUNDARY OUTFLOWS    5.3511E+03 2.9835E+03 9.3738E+02 1.4303E+03
                      Check      Initial    Lateral in Boundary F 
                                            flow       low        
 CONCENTRATION                           
 SWT_Normal           1.0000E+00 8.2292E-02 2.6107E-01 6.5664E-01
 
   2.08% Completed


 DUMP OF INTERMEDIATE RESULTS IN SELECTED SEGMENTS
  TIME =   0D  2H  0M  0S .
 
 TOTAL MASS IN SYSTEM 3.3043E+03 7.2341E+00 9.1183E+02 2.3852E+03
 CHANGES BY PROCESSES 0.0000E+00 0.0000E+00 0.0000E+00 0.0000E+00
 CHANGES BY LOADS     0.0000E+00 0.0000E+00 0.0000E+00 0.0000E+00
 BOUNDARY INFLOWS     5.4000E+03 0.0000E+00 1.8000E+03 3.6000E+03
 BOUNDARY OUTFLOWS    5.4000E+03 2.6468E+02 1.7508E+03 3.3845E+03
                      Check      Initial    Lateral in Boundary F 
                                            flow       low        
 CONCENTRATION                           
 SWT_Normal           1.0000E+00 2.1893E-03 2.7596E-01 7.2186E-01
 
   3.12% Completed


 DUMP OF INTERMEDIATE RESULTS IN SELECTED SEGMENTS
  TIME =   0D  3H  0M  0S .
 
 TOTAL MASS IN SYSTEM 3.3042E+03 1.1336E-01 9.1277E+02 2.3914E+03
 CHANGES BY PROCESSES 0.0000E+00 0.0000E+00 0.0000E+00 0.0000E+00
 CHANGES BY LOADS     0.0000E+00 0.0000E+00 0.0000E+00 0.0000E+00
 BOUNDARY INFLOWS     5.4000E+03 0.0000E+00 1.8000E+03 3.6000E+03
 BOUNDARY OUTFLOWS    5.4000E+03 7.1208E+00 1.7991E+03 3.5938E+03
                      Check      Initial    Lateral in Boundary F 
                                            flow       low        
 CONCENTRATION                           
 SWT_Normal           1.0000E+00 3.4307E-05 2.7624E-01 7.2373E-01
 
1
                                             Fraction calculation Sobek-WQ           
                                                                                     
                                                                                     
                                             T0: 2012.01.01 00:00:00  (scu=       1s)
   4.17% Completed


 DUMP OF INTERMEDIATE RESULTS IN SELECTED SEGMENTS
  TIME =   0D  4H  0M  0S .
 
 TOTAL MASS IN SYSTEM 3.3042E+03 1.3480E-03 9.1278E+02 2.3915E+03
 CHANGES BY PROCESSES 0.0000E+00 0.0000E+00 0.0000E+00 0.0000E+00
 CHANGES BY LOADS     0.0000E+00 0.0000E+00 0.0000E+00 0.0000E+00
 BOUNDARY INFLOWS     5.4000E+03 0.0000E+00 1.8000E+03 3.6000E+03
 BOUNDARY OUTFLOWS    5.4000E+03 1.1201E-01 1.8000E+03 3.5999E+03
                      Check      Initial    Lateral in Boundary F 
                                            flow       low        
 CONCENTRATION                           
 SWT_Normal           1.0000E+00 4.0795E-07 2.7624E-01 7.2376E-01
 
   5.21% Completed


 DUMP OF INTERMEDIATE RESULTS IN SELECTED SEGMENTS
  TIME =   0D  5H  0M  0S .
 
 TOTAL MASS IN SYSTEM 3.3042E+03 1.4136E-05 9.1278E+02 2.3915E+03
 CHANGES BY PROCESSES 0.0000E+00 0.0000E+00 0.0000E+00 0.0000E+00
 CHANGES BY LOADS     0.0000E+00 0.0000E+00 0.0000E+00 0.0000E+00
 BOUNDARY INFLOWS     5.4000E+03 0.0000E+00 1.8000E+03 3.6000E+03
 BOUNDARY OUTFLOWS    5.4000E+03 1.3313E-03 1.8000E+03 3.6000E+03
                      Check      Initial    Lateral in Boundary F 
                                            flow       low        
 CONCENTRATION                           
 SWT_Normal           1.0000E+00 4.2781E-09 2.7624E-01 7.2376E-01
 
   6.25% Completed


 DUMP OF INTERMEDIATE RESULTS IN SELECTED SEGMENTS
  TIME =   0D  6H  0M  0S .
 
 TOTAL MASS IN SYSTEM 3.3042E+03 1.5483E-07 9.1278E+02 2.3915E+03
 CHANGES BY PROCESSES 0.0000E+00 0.0000E+00 0.0000E+00 0.0000E+00
 CHANGES BY LOADS     0.0000E+00 0.0000E+00 0.0000E+00 0.0000E+00
 BOUNDARY INFLOWS     5.4000E+03 0.0000E+00 1.8000E+03 3.6000E+03
 BOUNDARY OUTFLOWS    5.4000E+03 1.3981E-05 1.8000E+03 3.6000E+03
                      Check      Initial    Lateral in Boundary F 
                                            flow       low        
 CONCENTRATION                           
 SWT_Normal           1.0000E+00 4.6858E-11 2.7624E-01 7.2376E-01
 
   7.29% Completed


 DUMP OF INTERMEDIATE RESULTS IN SELECTED SEGMENTS
  TIME =   0D  7H  0M  0S .
 
 TOTAL MASS IN SYSTEM 3.3042E+03 1.7073E-09 9.1278E+02 2.3915E+03
 CHANGES BY PROCESSES 0.0000E+00 0.0000E+00 0.0000E+00 0.0000E+00
 CHANGES BY LOADS     0.0000E+00 0.0000E+00 0.0000E+00 0.0000E+00
 BOUNDARY INFLOWS     5.4000E+03 0.0000E+00 1.8000E+03 3.6000E+03
 BOUNDARY OUTFLOWS    5.4000E+03 1.5312E-07 1.8000E+03 3.6000E+03
                      Check      Initial    Lateral in Boundary F 
                                            flow       low        
 CONCENTRATION                           
 SWT_Normal           1.0000E+00 5.1668E-13 2.7624E-01 7.2376E-01
 
1
                                             Fraction calculation Sobek-WQ           
                                                                                     
                                                                                     
                                             T0: 2012.01.01 00:00:00  (scu=       1s)
   8.33% Completed


 DUMP OF INTERMEDIATE RESULTS IN SELECTED SEGMENTS
  TIME =   0D  8H  0M  0S .
 
 TOTAL MASS IN SYSTEM 3.3042E+03 1.7614E-11 9.1278E+02 2.3915E+03
 CHANGES BY PROCESSES 0.0000E+00 0.0000E+00 0.0000E+00 0.0000E+00
 CHANGES BY LOADS     0.0000E+00 0.0000E+00 0.0000E+00 0.0000E+00
 BOUNDARY INFLOWS     5.4000E+03 0.0000E+00 1.8000E+03 3.6000E+03
 BOUNDARY OUTFLOWS    5.4000E+03 1.6896E-09 1.8000E+03 3.6000E+03
                      Check      Initial    Lateral in Boundary F 
                                            flow       low        
 CONCENTRATION                           
 SWT_Normal           1.0000E+00 5.3308E-15 2.7624E-01 7.2376E-01
 
   9.38% Completed


 DUMP OF INTERMEDIATE RESULTS IN SELECTED SEGMENTS
  TIME =   0D  9H  0M  0S .
 
 TOTAL MASS IN SYSTEM 3.3042E+03 1.6789E-13 9.1278E+02 2.3915E+03
 CHANGES BY PROCESSES 0.0000E+00 0.0000E+00 0.0000E+00 0.0000E+00
 CHANGES BY LOADS     0.0000E+00 0.0000E+00 0.0000E+00 0.0000E+00
 BOUNDARY INFLOWS     5.4000E+03 0.0000E+00 1.8000E+03 3.6000E+03
 BOUNDARY OUTFLOWS    5.4000E+03 1.7447E-11 1.8000E+03 3.6000E+03
                      Check      Initial    Lateral in Boundary F 
                                            flow       low        
 CONCENTRATION                           
 SWT_Normal           1.0000E+00 5.0809E-17 2.7624E-01 7.2376E-01
 
  10.42% Completed


 DUMP OF INTERMEDIATE RESULTS IN SELECTED SEGMENTS
  TIME =   0D 10H  0M  0S .
 
 TOTAL MASS IN SYSTEM 3.3042E+03 1.4996E-15 9.1278E+02 2.3915E+03
 CHANGES BY PROCESSES 0.0000E+00 0.0000E+00 0.0000E+00 0.0000E+00
 CHANGES BY LOADS     0.0000E+00 0.0000E+00 0.0000E+00 0.0000E+00
 BOUNDARY INFLOWS     5.4000E+03 0.0000E+00 1.8000E+03 3.6000E+03
 BOUNDARY OUTFLOWS    5.4000E+03 1.6639E-13 1.8000E+03 3.6000E+03
                      Check      Initial    Lateral in Boundary F 
                                            flow       low        
 CONCENTRATION                           
 SWT_Normal           1.0000E+00 4.5385E-19 2.7624E-01 7.2376E-01
 
  11.46% Completed


 DUMP OF INTERMEDIATE RESULTS IN SELECTED SEGMENTS
  TIME =   0D 11H  0M  0S .
 
 TOTAL MASS IN SYSTEM 3.3042E+03 1.2776E-17 9.1278E+02 2.3915E+03
 CHANGES BY PROCESSES 0.0000E+00 0.0000E+00 0.0000E+00 0.0000E+00
 CHANGES BY LOADS     0.0000E+00 0.0000E+00 0.0000E+00 0.0000E+00
 BOUNDARY INFLOWS     5.4000E+03 0.0000E+00 1.8000E+03 3.6000E+03
 BOUNDARY OUTFLOWS    5.4000E+03 1.4869E-15 1.8000E+03 3.6000E+03
                      Check      Initial    Lateral in Boundary F 
                                            flow       low        
 CONCENTRATION                           
 SWT_Normal           1.0000E+00 3.8666E-21 2.7624E-01 7.2376E-01
 
1
                                             Fraction calculation Sobek-WQ           
                                                                                     
                                                                                     
                                             T0: 2012.01.01 00:00:00  (scu=       1s)
  12.50% Completed


 DUMP OF INTERMEDIATE RESULTS IN SELECTED SEGMENTS
  TIME =   0D 12H  0M  0S .
 
 TOTAL MASS IN SYSTEM 3.3042E+03 1.0529E-19 9.1278E+02 2.3915E+03
 CHANGES BY PROCESSES 0.0000E+00 0.0000E+00 0.0000E+00 0.0000E+00
 CHANGES BY LOADS     0.0000E+00 0.0000E+00 0.0000E+00 0.0000E+00
 BOUNDARY INFLOWS     5.4000E+03 0.0000E+00 1.8000E+03 3.6000E+03
 BOUNDARY OUTFLOWS    5.4000E+03 1.2671E-17 1.8000E+03 3.6000E+03
                      Check      Initial    Lateral in Boundary F 
                                            flow       low        
 CONCENTRATION                           
 SWT_Normal           1.0000E+00 3.1866E-23 2.7624E-01 7.2376E-01
 
  13.54% Completed


 DUMP OF INTERMEDIATE RESULTS IN SELECTED SEGMENTS
  TIME =   0D 13H  0M  0S .
 
 TOTAL MASS IN SYSTEM 3.3042E+03 8.4818E-22 9.1278E+02 2.3915E+03
 CHANGES BY PROCESSES 0.0000E+00 0.0000E+00 0.0000E+00 0.0000E+00
 CHANGES BY LOADS     0.0000E+00 0.0000E+00 0.0000E+00 0.0000E+00
 BOUNDARY INFLOWS     5.4000E+03 0.0000E+00 1.8000E+03 3.6000E+03
 BOUNDARY OUTFLOWS    5.4000E+03 1.0445E-19 1.8000E+03 3.6000E+03
                      Check      Initial    Lateral in Boundary F 
                                            flow       low        
 CONCENTRATION                           
 SWT_Normal           1.0000E+00 2.5669E-25 2.7624E-01 7.2376E-01
 
  14.58% Completed


 DUMP OF INTERMEDIATE RESULTS IN SELECTED SEGMENTS
  TIME =   0D 14H  0M  0S .
 
 TOTAL MASS IN SYSTEM 3.3042E+03 0.0000E+00 9.1278E+02 2.3915E+03
 CHANGES BY PROCESSES 0.0000E+00 0.0000E+00 0.0000E+00 0.0000E+00
 CHANGES BY LOADS     0.0000E+00 0.0000E+00 0.0000E+00 0.0000E+00
 BOUNDARY INFLOWS     5.4000E+03 0.0000E+00 1.8000E+03 3.6000E+03
 BOUNDARY OUTFLOWS    5.4000E+03 6.7879E-22 1.8000E+03 3.6000E+03
                      Check      Initial    Lateral in Boundary F 
                                            flow       low        
 CONCENTRATION                           
 SWT_Normal           1.0000E+00 0.0000E+00 2.7624E-01 7.2376E-01
 
  15.62% Completed


 DUMP OF INTERMEDIATE RESULTS IN SELECTED SEGMENTS
  TIME =   0D 15H  0M  0S .
 
 TOTAL MASS IN SYSTEM 3.3042E+03 0.0000E+00 9.1278E+02 2.3915E+03
 CHANGES BY PROCESSES 0.0000E+00 0.0000E+00 0.0000E+00 0.0000E+00
 CHANGES BY LOADS     0.0000E+00 0.0000E+00 0.0000E+00 0.0000E+00
 BOUNDARY INFLOWS     5.4000E+03 0.0000E+00 1.8000E+03 3.6000E+03
 BOUNDARY OUTFLOWS    5.4000E+03 0.0000E+00 1.8000E+03 3.6000E+03
                      Check      Initial    Lateral in Boundary F 
                                            flow       low        
 CONCENTRATION                           
 SWT_Normal           1.0000E+00 0.0000E+00 2.7624E-01 7.2376E-01
 
1
                                             Fraction calculation Sobek-WQ           
                                                                                     
                                                                                     
                                             T0: 2012.01.01 00:00:00  (scu=       1s)
  16.67% Completed


 DUMP OF INTERMEDIATE RESULTS IN SELECTED SEGMENTS
  TIME =   0D 16H  0M  0S .
 
 TOTAL MASS IN SYSTEM 3.3042E+03 0.0000E+00 9.1278E+02 2.3915E+03
 CHANGES BY PROCESSES 0.0000E+00 0.0000E+00 0.0000E+00 0.0000E+00
 CHANGES BY LOADS     0.0000E+00 0.0000E+00 0.0000E+00 0.0000E+00
 BOUNDARY INFLOWS     5.4000E+03 0.0000E+00 1.8000E+03 3.6000E+03
 BOUNDARY OUTFLOWS    5.4000E+03 0.0000E+00 1.8000E+03 3.6000E+03
                      Check      Initial    Lateral in Boundary F 
                                            flow       low        
 CONCENTRATION                           
 SWT_Normal           1.0000E+00 0.0000E+00 2.7624E-01 7.2376E-01
 
  17.71% Completed


 DUMP OF INTERMEDIATE RESULTS IN SELECTED SEGMENTS
  TIME =   0D 17H  0M  0S .
 
 TOTAL MASS IN SYSTEM 3.3042E+03 0.0000E+00 9.1278E+02 2.3915E+03
 CHANGES BY PROCESSES 0.0000E+00 0.0000E+00 0.0000E+00 0.0000E+00
 CHANGES BY LOADS     0.0000E+00 0.0000E+00 0.0000E+00 0.0000E+00
 BOUNDARY INFLOWS     5.4000E+03 0.0000E+00 1.8000E+03 3.6000E+03
 BOUNDARY OUTFLOWS    5.4000E+03 0.0000E+00 1.8000E+03 3.6000E+03
                      Check      Initial    Lateral in Boundary F 
                                            flow       low        
 CONCENTRATION                           
 SWT_Normal           1.0000E+00 0.0000E+00 2.7624E-01 7.2376E-01
 
  18.75% Completed


 DUMP OF INTERMEDIATE RESULTS IN SELECTED SEGMENTS
  TIME =   0D 18H  0M  0S .
 
 TOTAL MASS IN SYSTEM 3.3042E+03 0.0000E+00 9.1278E+02 2.3915E+03
 CHANGES BY PROCESSES 0.0000E+00 0.0000E+00 0.0000E+00 0.0000E+00
 CHANGES BY LOADS     0.0000E+00 0.0000E+00 0.0000E+00 0.0000E+00
 BOUNDARY INFLOWS     5.4000E+03 0.0000E+00 1.8000E+03 3.6000E+03
 BOUNDARY OUTFLOWS    5.4000E+03 0.0000E+00 1.8000E+03 3.6000E+03
                      Check      Initial    Lateral in Boundary F 
                                            flow       low        
 CONCENTRATION                           
 SWT_Normal           1.0000E+00 0.0000E+00 2.7624E-01 7.2376E-01
 
  19.79% Completed


 DUMP OF INTERMEDIATE RESULTS IN SELECTED SEGMENTS
  TIME =   0D 19H  0M  0S .
 
 TOTAL MASS IN SYSTEM 3.3042E+03 0.0000E+00 9.1278E+02 2.3915E+03
 CHANGES BY PROCESSES 0.0000E+00 0.0000E+00 0.0000E+00 0.0000E+00
 CHANGES BY LOADS     0.0000E+00 0.0000E+00 0.0000E+00 0.0000E+00
 BOUNDARY INFLOWS     5.4000E+03 0.0000E+00 1.8000E+03 3.6000E+03
 BOUNDARY OUTFLOWS    5.4000E+03 0.0000E+00 1.8000E+03 3.6000E+03
                      Check      Initial    Lateral in Boundary F 
                                            flow       low        
 CONCENTRATION                           
 SWT_Normal           1.0000E+00 0.0000E+00 2.7624E-01 7.2376E-01
 
1
                                             Fraction calculation Sobek-WQ           
                                                                                     
                                                                                     
                                             T0: 2012.01.01 00:00:00  (scu=       1s)
  20.83% Completed


 DUMP OF INTERMEDIATE RESULTS IN SELECTED SEGMENTS
  TIME =   0D 20H  0M  0S .
 
 TOTAL MASS IN SYSTEM 3.3042E+03 0.0000E+00 9.1278E+02 2.3915E+03
 CHANGES BY PROCESSES 0.0000E+00 0.0000E+00 0.0000E+00 0.0000E+00
 CHANGES BY LOADS     0.0000E+00 0.0000E+00 0.0000E+00 0.0000E+00
 BOUNDARY INFLOWS     5.4000E+03 0.0000E+00 1.8000E+03 3.6000E+03
 BOUNDARY OUTFLOWS    5.4000E+03 0.0000E+00 1.8000E+03 3.6000E+03
                      Check      Initial    Lateral in Boundary F 
                                            flow       low        
 CONCENTRATION                           
 SWT_Normal           1.0000E+00 0.0000E+00 2.7624E-01 7.2376E-01
 
  21.88% Completed


 DUMP OF INTERMEDIATE RESULTS IN SELECTED SEGMENTS
  TIME =   0D 21H  0M  0S .
 
 TOTAL MASS IN SYSTEM 3.3042E+03 0.0000E+00 9.1278E+02 2.3915E+03
 CHANGES BY PROCESSES 0.0000E+00 0.0000E+00 0.0000E+00 0.0000E+00
 CHANGES BY LOADS     0.0000E+00 0.0000E+00 0.0000E+00 0.0000E+00
 BOUNDARY INFLOWS     5.4000E+03 0.0000E+00 1.8000E+03 3.6000E+03
 BOUNDARY OUTFLOWS    5.4000E+03 0.0000E+00 1.8000E+03 3.6000E+03
                      Check      Initial    Lateral in Boundary F 
                                            flow       low        
 CONCENTRATION                           
 SWT_Normal           1.0000E+00 0.0000E+00 2.7624E-01 7.2376E-01
 
  22.92% Completed


 DUMP OF INTERMEDIATE RESULTS IN SELECTED SEGMENTS
  TIME =   0D 22H  0M  0S .
 
 TOTAL MASS IN SYSTEM 3.3042E+03 0.0000E+00 9.1278E+02 2.3915E+03
 CHANGES BY PROCESSES 0.0000E+00 0.0000E+00 0.0000E+00 0.0000E+00
 CHANGES BY LOADS     0.0000E+00 0.0000E+00 0.0000E+00 0.0000E+00
 BOUNDARY INFLOWS     5.4000E+03 0.0000E+00 1.8000E+03 3.6000E+03
 BOUNDARY OUTFLOWS    5.4000E+03 0.0000E+00 1.8000E+03 3.6000E+03
                      Check      Initial    Lateral in Boundary F 
                                            flow       low        
 CONCENTRATION                           
 SWT_Normal           1.0000E+00 0.0000E+00 2.7624E-01 7.2376E-01
 
  23.96% Completed


 DUMP OF INTERMEDIATE RESULTS IN SELECTED SEGMENTS
  TIME =   0D 23H  0M  0S .
 
 TOTAL MASS IN SYSTEM 3.3042E+03 0.0000E+00 9.1278E+02 2.3915E+03
 CHANGES BY PROCESSES 0.0000E+00 0.0000E+00 0.0000E+00 0.0000E+00
 CHANGES BY LOADS     0.0000E+00 0.0000E+00 0.0000E+00 0.0000E+00
 BOUNDARY INFLOWS     5.4000E+03 0.0000E+00 1.8000E+03 3.6000E+03
 BOUNDARY OUTFLOWS    5.4000E+03 0.0000E+00 1.8000E+03 3.6000E+03
                      Check      Initial    Lateral in Boundary F 
                                            flow       low        
 CONCENTRATION                           
 SWT_Normal           1.0000E+00 0.0000E+00 2.7624E-01 7.2376E-01
 
1
                                             Fraction calculation Sobek-WQ           
                                                                                     
                                                                                     
                                             T0: 2012.01.01 00:00:00  (scu=       1s)
  25.00% Completed


 DUMP OF INTERMEDIATE RESULTS IN SELECTED SEGMENTS
  TIME =   1D  0H  0M  0S .
 
 TOTAL MASS IN SYSTEM 3.3042E+03 0.0000E+00 9.1278E+02 2.3915E+03
 CHANGES BY PROCESSES 0.0000E+00 0.0000E+00 0.0000E+00 0.0000E+00
 CHANGES BY LOADS     0.0000E+00 0.0000E+00 0.0000E+00 0.0000E+00
 BOUNDARY INFLOWS     5.4000E+03 0.0000E+00 1.8000E+03 3.6000E+03
 BOUNDARY OUTFLOWS    5.4000E+03 0.0000E+00 1.8000E+03 3.6000E+03
                      Check      Initial    Lateral in Boundary F 
                                            flow       low        
 CONCENTRATION                           
 SWT_Normal           1.0000E+00 0.0000E+00 2.7624E-01 7.2376E-01
 
  26.04% Completed


 DUMP OF INTERMEDIATE RESULTS IN SELECTED SEGMENTS
  TIME =   1D  1H  0M  0S .
 
 TOTAL MASS IN SYSTEM 3.3042E+03 0.0000E+00 9.1278E+02 2.3915E+03
 CHANGES BY PROCESSES 0.0000E+00 0.0000E+00 0.0000E+00 0.0000E+00
 CHANGES BY LOADS     0.0000E+00 0.0000E+00 0.0000E+00 0.0000E+00
 BOUNDARY INFLOWS     5.4000E+03 0.0000E+00 1.8000E+03 3.6000E+03
 BOUNDARY OUTFLOWS    5.4000E+03 0.0000E+00 1.8000E+03 3.6000E+03
                      Check      Initial    Lateral in Boundary F 
                                            flow       low        
 CONCENTRATION                           
 SWT_Normal           1.0000E+00 0.0000E+00 2.7624E-01 7.2376E-01
 
  27.08% Completed


 DUMP OF INTERMEDIATE RESULTS IN SELECTED SEGMENTS
  TIME =   1D  2H  0M  0S .
 
 TOTAL MASS IN SYSTEM 3.3042E+03 0.0000E+00 9.1278E+02 2.3915E+03
 CHANGES BY PROCESSES 0.0000E+00 0.0000E+00 0.0000E+00 0.0000E+00
 CHANGES BY LOADS     0.0000E+00 0.0000E+00 0.0000E+00 0.0000E+00
 BOUNDARY INFLOWS     5.4000E+03 0.0000E+00 1.8000E+03 3.6000E+03
 BOUNDARY OUTFLOWS    5.4000E+03 0.0000E+00 1.8000E+03 3.6000E+03
                      Check      Initial    Lateral in Boundary F 
                                            flow       low        
 CONCENTRATION                           
 SWT_Normal           1.0000E+00 0.0000E+00 2.7624E-01 7.2376E-01
 
  28.12% Completed


 DUMP OF INTERMEDIATE RESULTS IN SELECTED SEGMENTS
  TIME =   1D  3H  0M  0S .
 
 TOTAL MASS IN SYSTEM 3.3042E+03 0.0000E+00 9.1278E+02 2.3915E+03
 CHANGES BY PROCESSES 0.0000E+00 0.0000E+00 0.0000E+00 0.0000E+00
 CHANGES BY LOADS     0.0000E+00 0.0000E+00 0.0000E+00 0.0000E+00
 BOUNDARY INFLOWS     5.4000E+03 0.0000E+00 1.8000E+03 3.6000E+03
 BOUNDARY OUTFLOWS    5.4000E+03 0.0000E+00 1.8000E+03 3.6000E+03
                      Check      Initial    Lateral in Boundary F 
                                            flow       low        
 CONCENTRATION                           
 SWT_Normal           1.0000E+00 0.0000E+00 2.7624E-01 7.2376E-01
 
1
                                             Fraction calculation Sobek-WQ           
                                                                                     
                                                                                     
                                             T0: 2012.01.01 00:00:00  (scu=       1s)
  29.17% Completed


 DUMP OF INTERMEDIATE RESULTS IN SELECTED SEGMENTS
  TIME =   1D  4H  0M  0S .
 
 TOTAL MASS IN SYSTEM 3.3042E+03 0.0000E+00 9.1278E+02 2.3915E+03
 CHANGES BY PROCESSES 0.0000E+00 0.0000E+00 0.0000E+00 0.0000E+00
 CHANGES BY LOADS     0.0000E+00 0.0000E+00 0.0000E+00 0.0000E+00
 BOUNDARY INFLOWS     5.4000E+03 0.0000E+00 1.8000E+03 3.6000E+03
 BOUNDARY OUTFLOWS    5.4000E+03 0.0000E+00 1.8000E+03 3.6000E+03
                      Check      Initial    Lateral in Boundary F 
                                            flow       low        
 CONCENTRATION                           
 SWT_Normal           1.0000E+00 0.0000E+00 2.7624E-01 7.2376E-01
 
  30.21% Completed


 DUMP OF INTERMEDIATE RESULTS IN SELECTED SEGMENTS
  TIME =   1D  5H  0M  0S .
 
 TOTAL MASS IN SYSTEM 3.3042E+03 0.0000E+00 9.1278E+02 2.3915E+03
 CHANGES BY PROCESSES 0.0000E+00 0.0000E+00 0.0000E+00 0.0000E+00
 CHANGES BY LOADS     0.0000E+00 0.0000E+00 0.0000E+00 0.0000E+00
 BOUNDARY INFLOWS     5.4000E+03 0.0000E+00 1.8000E+03 3.6000E+03
 BOUNDARY OUTFLOWS    5.4000E+03 0.0000E+00 1.8000E+03 3.6000E+03
                      Check      Initial    Lateral in Boundary F 
                                            flow       low        
 CONCENTRATION                           
 SWT_Normal           1.0000E+00 0.0000E+00 2.7624E-01 7.2376E-01
 
  31.25% Completed


 DUMP OF INTERMEDIATE RESULTS IN SELECTED SEGMENTS
  TIME =   1D  6H  0M  0S .
 
 TOTAL MASS IN SYSTEM 3.3042E+03 0.0000E+00 9.1278E+02 2.3915E+03
 CHANGES BY PROCESSES 0.0000E+00 0.0000E+00 0.0000E+00 0.0000E+00
 CHANGES BY LOADS     0.0000E+00 0.0000E+00 0.0000E+00 0.0000E+00
 BOUNDARY INFLOWS     5.4000E+03 0.0000E+00 1.8000E+03 3.6000E+03
 BOUNDARY OUTFLOWS    5.4000E+03 0.0000E+00 1.8000E+03 3.6000E+03
                      Check      Initial    Lateral in Boundary F 
                                            flow       low        
 CONCENTRATION                           
 SWT_Normal           1.0000E+00 0.0000E+00 2.7624E-01 7.2376E-01
 
  32.29% Completed


 DUMP OF INTERMEDIATE RESULTS IN SELECTED SEGMENTS
  TIME =   1D  7H  0M  0S .
 
 TOTAL MASS IN SYSTEM 3.3042E+03 0.0000E+00 9.1278E+02 2.3915E+03
 CHANGES BY PROCESSES 0.0000E+00 0.0000E+00 0.0000E+00 0.0000E+00
 CHANGES BY LOADS     0.0000E+00 0.0000E+00 0.0000E+00 0.0000E+00
 BOUNDARY INFLOWS     5.4000E+03 0.0000E+00 1.8000E+03 3.6000E+03
 BOUNDARY OUTFLOWS    5.4000E+03 0.0000E+00 1.8000E+03 3.6000E+03
                      Check      Initial    Lateral in Boundary F 
                                            flow       low        
 CONCENTRATION                           
 SWT_Normal           1.0000E+00 0.0000E+00 2.7624E-01 7.2376E-01
 
1
                                             Fraction calculation Sobek-WQ           
                                                                                     
                                                                                     
                                             T0: 2012.01.01 00:00:00  (scu=       1s)
  33.33% Completed


 DUMP OF INTERMEDIATE RESULTS IN SELECTED SEGMENTS
  TIME =   1D  8H  0M  0S .
 
 TOTAL MASS IN SYSTEM 3.3042E+03 0.0000E+00 9.1278E+02 2.3915E+03
 CHANGES BY PROCESSES 0.0000E+00 0.0000E+00 0.0000E+00 0.0000E+00
 CHANGES BY LOADS     0.0000E+00 0.0000E+00 0.0000E+00 0.0000E+00
 BOUNDARY INFLOWS     5.4000E+03 0.0000E+00 1.8000E+03 3.6000E+03
 BOUNDARY OUTFLOWS    5.4000E+03 0.0000E+00 1.8000E+03 3.6000E+03
                      Check      Initial    Lateral in Boundary F 
                                            flow       low        
 CONCENTRATION                           
 SWT_Normal           1.0000E+00 0.0000E+00 2.7624E-01 7.2376E-01
 
  34.38% Completed


 DUMP OF INTERMEDIATE RESULTS IN SELECTED SEGMENTS
  TIME =   1D  9H  0M  0S .
 
 TOTAL MASS IN SYSTEM 3.3042E+03 0.0000E+00 9.1278E+02 2.3915E+03
 CHANGES BY PROCESSES 0.0000E+00 0.0000E+00 0.0000E+00 0.0000E+00
 CHANGES BY LOADS     0.0000E+00 0.0000E+00 0.0000E+00 0.0000E+00
 BOUNDARY INFLOWS     5.4000E+03 0.0000E+00 1.8000E+03 3.6000E+03
 BOUNDARY OUTFLOWS    5.4000E+03 0.0000E+00 1.8000E+03 3.6000E+03
                      Check      Initial    Lateral in Boundary F 
                                            flow       low        
 CONCENTRATION                           
 SWT_Normal           1.0000E+00 0.0000E+00 2.7624E-01 7.2376E-01
 
  35.42% Completed


 DUMP OF INTERMEDIATE RESULTS IN SELECTED SEGMENTS
  TIME =   1D 10H  0M  0S .
 
 TOTAL MASS IN SYSTEM 3.3042E+03 0.0000E+00 9.1278E+02 2.3915E+03
 CHANGES BY PROCESSES 0.0000E+00 0.0000E+00 0.0000E+00 0.0000E+00
 CHANGES BY LOADS     0.0000E+00 0.0000E+00 0.0000E+00 0.0000E+00
 BOUNDARY INFLOWS     5.4000E+03 0.0000E+00 1.8000E+03 3.6000E+03
 BOUNDARY OUTFLOWS    5.4000E+03 0.0000E+00 1.8000E+03 3.6000E+03
                      Check      Initial    Lateral in Boundary F 
                                            flow       low        
 CONCENTRATION                           
 SWT_Normal           1.0000E+00 0.0000E+00 2.7624E-01 7.2376E-01
 
  36.46% Completed


 DUMP OF INTERMEDIATE RESULTS IN SELECTED SEGMENTS
  TIME =   1D 11H  0M  0S .
 
 TOTAL MASS IN SYSTEM 3.3042E+03 0.0000E+00 9.1278E+02 2.3915E+03
 CHANGES BY PROCESSES 0.0000E+00 0.0000E+00 0.0000E+00 0.0000E+00
 CHANGES BY LOADS     0.0000E+00 0.0000E+00 0.0000E+00 0.0000E+00
 BOUNDARY INFLOWS     5.4000E+03 0.0000E+00 1.8000E+03 3.6000E+03
 BOUNDARY OUTFLOWS    5.4000E+03 0.0000E+00 1.8000E+03 3.6000E+03
                      Check      Initial    Lateral in Boundary F 
                                            flow       low        
 CONCENTRATION                           
 SWT_Normal           1.0000E+00 0.0000E+00 2.7624E-01 7.2376E-01
 
1
                                             Fraction calculation Sobek-WQ           
                                                                                     
                                                                                     
                                             T0: 2012.01.01 00:00:00  (scu=       1s)
  37.50% Completed


 DUMP OF INTERMEDIATE RESULTS IN SELECTED SEGMENTS
  TIME =   1D 12H  0M  0S .
 
 TOTAL MASS IN SYSTEM 3.3042E+03 0.0000E+00 9.1278E+02 2.3915E+03
 CHANGES BY PROCESSES 0.0000E+00 0.0000E+00 0.0000E+00 0.0000E+00
 CHANGES BY LOADS     0.0000E+00 0.0000E+00 0.0000E+00 0.0000E+00
 BOUNDARY INFLOWS     5.4000E+03 0.0000E+00 1.8000E+03 3.6000E+03
 BOUNDARY OUTFLOWS    5.4000E+03 0.0000E+00 1.8000E+03 3.6000E+03
                      Check      Initial    Lateral in Boundary F 
                                            flow       low        
 CONCENTRATION                           
 SWT_Normal           1.0000E+00 0.0000E+00 2.7624E-01 7.2376E-01
 
  38.54% Completed


 DUMP OF INTERMEDIATE RESULTS IN SELECTED SEGMENTS
  TIME =   1D 13H  0M  0S .
 
 TOTAL MASS IN SYSTEM 3.3042E+03 0.0000E+00 9.1278E+02 2.3915E+03
 CHANGES BY PROCESSES 0.0000E+00 0.0000E+00 0.0000E+00 0.0000E+00
 CHANGES BY LOADS     0.0000E+00 0.0000E+00 0.0000E+00 0.0000E+00
 BOUNDARY INFLOWS     5.4000E+03 0.0000E+00 1.8000E+03 3.6000E+03
 BOUNDARY OUTFLOWS    5.4000E+03 0.0000E+00 1.8000E+03 3.6000E+03
                      Check      Initial    Lateral in Boundary F 
                                            flow       low        
 CONCENTRATION                           
 SWT_Normal           1.0000E+00 0.0000E+00 2.7624E-01 7.2376E-01
 
  39.58% Completed


 DUMP OF INTERMEDIATE RESULTS IN SELECTED SEGMENTS
  TIME =   1D 14H  0M  0S .
 
 TOTAL MASS IN SYSTEM 3.3042E+03 0.0000E+00 9.1278E+02 2.3915E+03
 CHANGES BY PROCESSES 0.0000E+00 0.0000E+00 0.0000E+00 0.0000E+00
 CHANGES BY LOADS     0.0000E+00 0.0000E+00 0.0000E+00 0.0000E+00
 BOUNDARY INFLOWS     5.4000E+03 0.0000E+00 1.8000E+03 3.6000E+03
 BOUNDARY OUTFLOWS    5.4000E+03 0.0000E+00 1.8000E+03 3.6000E+03
                      Check      Initial    Lateral in Boundary F 
                                            flow       low        
 CONCENTRATION                           
 SWT_Normal           1.0000E+00 0.0000E+00 2.7624E-01 7.2376E-01
 
  40.62% Completed


 DUMP OF INTERMEDIATE RESULTS IN SELECTED SEGMENTS
  TIME =   1D 15H  0M  0S .
 
 TOTAL MASS IN SYSTEM 3.3042E+03 0.0000E+00 9.1278E+02 2.3915E+03
 CHANGES BY PROCESSES 0.0000E+00 0.0000E+00 0.0000E+00 0.0000E+00
 CHANGES BY LOADS     0.0000E+00 0.0000E+00 0.0000E+00 0.0000E+00
 BOUNDARY INFLOWS     5.4000E+03 0.0000E+00 1.8000E+03 3.6000E+03
 BOUNDARY OUTFLOWS    5.4000E+03 0.0000E+00 1.8000E+03 3.6000E+03
                      Check      Initial    Lateral in Boundary F 
                                            flow       low        
 CONCENTRATION                           
 SWT_Normal           1.0000E+00 0.0000E+00 2.7624E-01 7.2376E-01
 
1
                                             Fraction calculation Sobek-WQ           
                                                                                     
                                                                                     
                                             T0: 2012.01.01 00:00:00  (scu=       1s)
  41.67% Completed


 DUMP OF INTERMEDIATE RESULTS IN SELECTED SEGMENTS
  TIME =   1D 16H  0M  0S .
 
 TOTAL MASS IN SYSTEM 3.3042E+03 0.0000E+00 9.1278E+02 2.3915E+03
 CHANGES BY PROCESSES 0.0000E+00 0.0000E+00 0.0000E+00 0.0000E+00
 CHANGES BY LOADS     0.0000E+00 0.0000E+00 0.0000E+00 0.0000E+00
 BOUNDARY INFLOWS     5.4000E+03 0.0000E+00 1.8000E+03 3.6000E+03
 BOUNDARY OUTFLOWS    5.4000E+03 0.0000E+00 1.8000E+03 3.6000E+03
                      Check      Initial    Lateral in Boundary F 
                                            flow       low        
 CONCENTRATION                           
 SWT_Normal           1.0000E+00 0.0000E+00 2.7624E-01 7.2376E-01
 
  42.71% Completed


 DUMP OF INTERMEDIATE RESULTS IN SELECTED SEGMENTS
  TIME =   1D 17H  0M  0S .
 
 TOTAL MASS IN SYSTEM 3.3042E+03 0.0000E+00 9.1278E+02 2.3915E+03
 CHANGES BY PROCESSES 0.0000E+00 0.0000E+00 0.0000E+00 0.0000E+00
 CHANGES BY LOADS     0.0000E+00 0.0000E+00 0.0000E+00 0.0000E+00
 BOUNDARY INFLOWS     5.4000E+03 0.0000E+00 1.8000E+03 3.6000E+03
 BOUNDARY OUTFLOWS    5.4000E+03 0.0000E+00 1.8000E+03 3.6000E+03
                      Check      Initial    Lateral in Boundary F 
                                            flow       low        
 CONCENTRATION                           
 SWT_Normal           1.0000E+00 0.0000E+00 2.7624E-01 7.2376E-01
 
  43.75% Completed


 DUMP OF INTERMEDIATE RESULTS IN SELECTED SEGMENTS
  TIME =   1D 18H  0M  0S .
 
 TOTAL MASS IN SYSTEM 3.3042E+03 0.0000E+00 9.1278E+02 2.3915E+03
 CHANGES BY PROCESSES 0.0000E+00 0.0000E+00 0.0000E+00 0.0000E+00
 CHANGES BY LOADS     0.0000E+00 0.0000E+00 0.0000E+00 0.0000E+00
 BOUNDARY INFLOWS     5.4000E+03 0.0000E+00 1.8000E+03 3.6000E+03
 BOUNDARY OUTFLOWS    5.4000E+03 0.0000E+00 1.8000E+03 3.6000E+03
                      Check      Initial    Lateral in Boundary F 
                                            flow       low        
 CONCENTRATION                           
 SWT_Normal           1.0000E+00 0.0000E+00 2.7624E-01 7.2376E-01
 
  44.79% Completed


 DUMP OF INTERMEDIATE RESULTS IN SELECTED SEGMENTS
  TIME =   1D 19H  0M  0S .
 
 TOTAL MASS IN SYSTEM 3.3042E+03 0.0000E+00 9.1278E+02 2.3915E+03
 CHANGES BY PROCESSES 0.0000E+00 0.0000E+00 0.0000E+00 0.0000E+00
 CHANGES BY LOADS     0.0000E+00 0.0000E+00 0.0000E+00 0.0000E+00
 BOUNDARY INFLOWS     5.4000E+03 0.0000E+00 1.8000E+03 3.6000E+03
 BOUNDARY OUTFLOWS    5.4000E+03 0.0000E+00 1.8000E+03 3.6000E+03
                      Check      Initial    Lateral in Boundary F 
                                            flow       low        
 CONCENTRATION                           
 SWT_Normal           1.0000E+00 0.0000E+00 2.7624E-01 7.2376E-01
 
1
                                             Fraction calculation Sobek-WQ           
                                                                                     
                                                                                     
                                             T0: 2012.01.01 00:00:00  (scu=       1s)
  45.83% Completed


 DUMP OF INTERMEDIATE RESULTS IN SELECTED SEGMENTS
  TIME =   1D 20H  0M  0S .
 
 TOTAL MASS IN SYSTEM 3.3042E+03 0.0000E+00 9.1278E+02 2.3915E+03
 CHANGES BY PROCESSES 0.0000E+00 0.0000E+00 0.0000E+00 0.0000E+00
 CHANGES BY LOADS     0.0000E+00 0.0000E+00 0.0000E+00 0.0000E+00
 BOUNDARY INFLOWS     5.4000E+03 0.0000E+00 1.8000E+03 3.6000E+03
 BOUNDARY OUTFLOWS    5.4000E+03 0.0000E+00 1.8000E+03 3.6000E+03
                      Check      Initial    Lateral in Boundary F 
                                            flow       low        
 CONCENTRATION                           
 SWT_Normal           1.0000E+00 0.0000E+00 2.7624E-01 7.2376E-01
 
  46.88% Completed


 DUMP OF INTERMEDIATE RESULTS IN SELECTED SEGMENTS
  TIME =   1D 21H  0M  0S .
 
 TOTAL MASS IN SYSTEM 3.3042E+03 0.0000E+00 9.1278E+02 2.3915E+03
 CHANGES BY PROCESSES 0.0000E+00 0.0000E+00 0.0000E+00 0.0000E+00
 CHANGES BY LOADS     0.0000E+00 0.0000E+00 0.0000E+00 0.0000E+00
 BOUNDARY INFLOWS     5.4000E+03 0.0000E+00 1.8000E+03 3.6000E+03
 BOUNDARY OUTFLOWS    5.4000E+03 0.0000E+00 1.8000E+03 3.6000E+03
                      Check      Initial    Lateral in Boundary F 
                                            flow       low        
 CONCENTRATION                           
 SWT_Normal           1.0000E+00 0.0000E+00 2.7624E-01 7.2376E-01
 
  47.92% Completed


 DUMP OF INTERMEDIATE RESULTS IN SELECTED SEGMENTS
  TIME =   1D 22H  0M  0S .
 
 TOTAL MASS IN SYSTEM 3.3042E+03 0.0000E+00 9.1278E+02 2.3915E+03
 CHANGES BY PROCESSES 0.0000E+00 0.0000E+00 0.0000E+00 0.0000E+00
 CHANGES BY LOADS     0.0000E+00 0.0000E+00 0.0000E+00 0.0000E+00
 BOUNDARY INFLOWS     5.4000E+03 0.0000E+00 1.8000E+03 3.6000E+03
 BOUNDARY OUTFLOWS    5.4000E+03 0.0000E+00 1.8000E+03 3.6000E+03
                      Check      Initial    Lateral in Boundary F 
                                            flow       low        
 CONCENTRATION                           
 SWT_Normal           1.0000E+00 0.0000E+00 2.7624E-01 7.2376E-01
 
  48.96% Completed


 DUMP OF INTERMEDIATE RESULTS IN SELECTED SEGMENTS
  TIME =   1D 23H  0M  0S .
 
 TOTAL MASS IN SYSTEM 3.3042E+03 0.0000E+00 9.1278E+02 2.3915E+03
 CHANGES BY PROCESSES 0.0000E+00 0.0000E+00 0.0000E+00 0.0000E+00
 CHANGES BY LOADS     0.0000E+00 0.0000E+00 0.0000E+00 0.0000E+00
 BOUNDARY INFLOWS     5.4000E+03 0.0000E+00 1.8000E+03 3.6000E+03
 BOUNDARY OUTFLOWS    5.4000E+03 0.0000E+00 1.8000E+03 3.6000E+03
                      Check      Initial    Lateral in Boundary F 
                                            flow       low        
 CONCENTRATION                           
 SWT_Normal           1.0000E+00 0.0000E+00 2.7624E-01 7.2376E-01
 
1
                                             Fraction calculation Sobek-WQ           
                                                                                     
                                                                                     
                                             T0: 2012.01.01 00:00:00  (scu=       1s)
  50.00% Completed


 DUMP OF INTERMEDIATE RESULTS IN SELECTED SEGMENTS
  TIME =   2D  0H  0M  0S .
 
 TOTAL MASS IN SYSTEM 3.3042E+03 0.0000E+00 9.1278E+02 2.3915E+03
 CHANGES BY PROCESSES 0.0000E+00 0.0000E+00 0.0000E+00 0.0000E+00
 CHANGES BY LOADS     0.0000E+00 0.0000E+00 0.0000E+00 0.0000E+00
 BOUNDARY INFLOWS     5.4000E+03 0.0000E+00 1.8000E+03 3.6000E+03
 BOUNDARY OUTFLOWS    5.4000E+03 0.0000E+00 1.8000E+03 3.6000E+03
                      Check      Initial    Lateral in Boundary F 
                                            flow       low        
 CONCENTRATION                           
 SWT_Normal           1.0000E+00 0.0000E+00 2.7624E-01 7.2376E-01
 
  51.04% Completed


 DUMP OF INTERMEDIATE RESULTS IN SELECTED SEGMENTS
  TIME =   2D  1H  0M  0S .
 
 TOTAL MASS IN SYSTEM 3.3042E+03 0.0000E+00 9.1278E+02 2.3915E+03
 CHANGES BY PROCESSES 0.0000E+00 0.0000E+00 0.0000E+00 0.0000E+00
 CHANGES BY LOADS     0.0000E+00 0.0000E+00 0.0000E+00 0.0000E+00
 BOUNDARY INFLOWS     5.4000E+03 0.0000E+00 1.8000E+03 3.6000E+03
 BOUNDARY OUTFLOWS    5.4000E+03 0.0000E+00 1.8000E+03 3.6000E+03
                      Check      Initial    Lateral in Boundary F 
                                            flow       low        
 CONCENTRATION                           
 SWT_Normal           1.0000E+00 0.0000E+00 2.7624E-01 7.2376E-01
 
  52.08% Completed


 DUMP OF INTERMEDIATE RESULTS IN SELECTED SEGMENTS
  TIME =   2D  2H  0M  0S .
 
 TOTAL MASS IN SYSTEM 3.3042E+03 0.0000E+00 9.1278E+02 2.3915E+03
 CHANGES BY PROCESSES 0.0000E+00 0.0000E+00 0.0000E+00 0.0000E+00
 CHANGES BY LOADS     0.0000E+00 0.0000E+00 0.0000E+00 0.0000E+00
 BOUNDARY INFLOWS     5.4000E+03 0.0000E+00 1.8000E+03 3.6000E+03
 BOUNDARY OUTFLOWS    5.4000E+03 0.0000E+00 1.8000E+03 3.6000E+03
                      Check      Initial    Lateral in Boundary F 
                                            flow       low        
 CONCENTRATION                           
 SWT_Normal           1.0000E+00 0.0000E+00 2.7624E-01 7.2376E-01
 
  53.12% Completed


 DUMP OF INTERMEDIATE RESULTS IN SELECTED SEGMENTS
  TIME =   2D  3H  0M  0S .
 
 TOTAL MASS IN SYSTEM 3.3042E+03 0.0000E+00 9.1278E+02 2.3915E+03
 CHANGES BY PROCESSES 0.0000E+00 0.0000E+00 0.0000E+00 0.0000E+00
 CHANGES BY LOADS     0.0000E+00 0.0000E+00 0.0000E+00 0.0000E+00
 BOUNDARY INFLOWS     5.4000E+03 0.0000E+00 1.8000E+03 3.6000E+03
 BOUNDARY OUTFLOWS    5.4000E+03 0.0000E+00 1.8000E+03 3.6000E+03
                      Check      Initial    Lateral in Boundary F 
                                            flow       low        
 CONCENTRATION                           
 SWT_Normal           1.0000E+00 0.0000E+00 2.7624E-01 7.2376E-01
 
1
                                             Fraction calculation Sobek-WQ           
                                                                                     
                                                                                     
                                             T0: 2012.01.01 00:00:00  (scu=       1s)
  54.17% Completed


 DUMP OF INTERMEDIATE RESULTS IN SELECTED SEGMENTS
  TIME =   2D  4H  0M  0S .
 
 TOTAL MASS IN SYSTEM 3.3042E+03 0.0000E+00 9.1278E+02 2.3915E+03
 CHANGES BY PROCESSES 0.0000E+00 0.0000E+00 0.0000E+00 0.0000E+00
 CHANGES BY LOADS     0.0000E+00 0.0000E+00 0.0000E+00 0.0000E+00
 BOUNDARY INFLOWS     5.4000E+03 0.0000E+00 1.8000E+03 3.6000E+03
 BOUNDARY OUTFLOWS    5.4000E+03 0.0000E+00 1.8000E+03 3.6000E+03
                      Check      Initial    Lateral in Boundary F 
                                            flow       low        
 CONCENTRATION                           
 SWT_Normal           1.0000E+00 0.0000E+00 2.7624E-01 7.2376E-01
 
  55.21% Completed


 DUMP OF INTERMEDIATE RESULTS IN SELECTED SEGMENTS
  TIME =   2D  5H  0M  0S .
 
 TOTAL MASS IN SYSTEM 3.3042E+03 0.0000E+00 9.1278E+02 2.3915E+03
 CHANGES BY PROCESSES 0.0000E+00 0.0000E+00 0.0000E+00 0.0000E+00
 CHANGES BY LOADS     0.0000E+00 0.0000E+00 0.0000E+00 0.0000E+00
 BOUNDARY INFLOWS     5.4000E+03 0.0000E+00 1.8000E+03 3.6000E+03
 BOUNDARY OUTFLOWS    5.4000E+03 0.0000E+00 1.8000E+03 3.6000E+03
                      Check      Initial    Lateral in Boundary F 
                                            flow       low        
 CONCENTRATION                           
 SWT_Normal           1.0000E+00 0.0000E+00 2.7624E-01 7.2376E-01
 
  56.25% Completed


 DUMP OF INTERMEDIATE RESULTS IN SELECTED SEGMENTS
  TIME =   2D  6H  0M  0S .
 
 TOTAL MASS IN SYSTEM 3.3042E+03 0.0000E+00 9.1278E+02 2.3915E+03
 CHANGES BY PROCESSES 0.0000E+00 0.0000E+00 0.0000E+00 0.0000E+00
 CHANGES BY LOADS     0.0000E+00 0.0000E+00 0.0000E+00 0.0000E+00
 BOUNDARY INFLOWS     5.4000E+03 0.0000E+00 1.8000E+03 3.6000E+03
 BOUNDARY OUTFLOWS    5.4000E+03 0.0000E+00 1.8000E+03 3.6000E+03
                      Check      Initial    Lateral in Boundary F 
                                            flow       low        
 CONCENTRATION                           
 SWT_Normal           1.0000E+00 0.0000E+00 2.7624E-01 7.2376E-01
 
  57.29% Completed


 DUMP OF INTERMEDIATE RESULTS IN SELECTED SEGMENTS
  TIME =   2D  7H  0M  0S .
 
 TOTAL MASS IN SYSTEM 3.3042E+03 0.0000E+00 9.1278E+02 2.3915E+03
 CHANGES BY PROCESSES 0.0000E+00 0.0000E+00 0.0000E+00 0.0000E+00
 CHANGES BY LOADS     0.0000E+00 0.0000E+00 0.0000E+00 0.0000E+00
 BOUNDARY INFLOWS     5.4000E+03 0.0000E+00 1.8000E+03 3.6000E+03
 BOUNDARY OUTFLOWS    5.4000E+03 0.0000E+00 1.8000E+03 3.6000E+03
                      Check      Initial    Lateral in Boundary F 
                                            flow       low        
 CONCENTRATION                           
 SWT_Normal           1.0000E+00 0.0000E+00 2.7624E-01 7.2376E-01
 
1
                                             Fraction calculation Sobek-WQ           
                                                                                     
                                                                                     
                                             T0: 2012.01.01 00:00:00  (scu=       1s)
  58.33% Completed


 DUMP OF INTERMEDIATE RESULTS IN SELECTED SEGMENTS
  TIME =   2D  8H  0M  0S .
 
 TOTAL MASS IN SYSTEM 3.3042E+03 0.0000E+00 9.1278E+02 2.3915E+03
 CHANGES BY PROCESSES 0.0000E+00 0.0000E+00 0.0000E+00 0.0000E+00
 CHANGES BY LOADS     0.0000E+00 0.0000E+00 0.0000E+00 0.0000E+00
 BOUNDARY INFLOWS     5.4000E+03 0.0000E+00 1.8000E+03 3.6000E+03
 BOUNDARY OUTFLOWS    5.4000E+03 0.0000E+00 1.8000E+03 3.6000E+03
                      Check      Initial    Lateral in Boundary F 
                                            flow       low        
 CONCENTRATION                           
 SWT_Normal           1.0000E+00 0.0000E+00 2.7624E-01 7.2376E-01
 
  59.38% Completed


 DUMP OF INTERMEDIATE RESULTS IN SELECTED SEGMENTS
  TIME =   2D  9H  0M  0S .
 
 TOTAL MASS IN SYSTEM 3.3042E+03 0.0000E+00 9.1278E+02 2.3915E+03
 CHANGES BY PROCESSES 0.0000E+00 0.0000E+00 0.0000E+00 0.0000E+00
 CHANGES BY LOADS     0.0000E+00 0.0000E+00 0.0000E+00 0.0000E+00
 BOUNDARY INFLOWS     5.4000E+03 0.0000E+00 1.8000E+03 3.6000E+03
 BOUNDARY OUTFLOWS    5.4000E+03 0.0000E+00 1.8000E+03 3.6000E+03
                      Check      Initial    Lateral in Boundary F 
                                            flow       low        
 CONCENTRATION                           
 SWT_Normal           1.0000E+00 0.0000E+00 2.7624E-01 7.2376E-01
 
  60.42% Completed


 DUMP OF INTERMEDIATE RESULTS IN SELECTED SEGMENTS
  TIME =   2D 10H  0M  0S .
 
 TOTAL MASS IN SYSTEM 3.3042E+03 0.0000E+00 9.1278E+02 2.3915E+03
 CHANGES BY PROCESSES 0.0000E+00 0.0000E+00 0.0000E+00 0.0000E+00
 CHANGES BY LOADS     0.0000E+00 0.0000E+00 0.0000E+00 0.0000E+00
 BOUNDARY INFLOWS     5.4000E+03 0.0000E+00 1.8000E+03 3.6000E+03
 BOUNDARY OUTFLOWS    5.4000E+03 0.0000E+00 1.8000E+03 3.6000E+03
                      Check      Initial    Lateral in Boundary F 
                                            flow       low        
 CONCENTRATION                           
 SWT_Normal           1.0000E+00 0.0000E+00 2.7624E-01 7.2376E-01
 
  61.46% Completed


 DUMP OF INTERMEDIATE RESULTS IN SELECTED SEGMENTS
  TIME =   2D 11H  0M  0S .
 
 TOTAL MASS IN SYSTEM 3.3042E+03 0.0000E+00 9.1278E+02 2.3915E+03
 CHANGES BY PROCESSES 0.0000E+00 0.0000E+00 0.0000E+00 0.0000E+00
 CHANGES BY LOADS     0.0000E+00 0.0000E+00 0.0000E+00 0.0000E+00
 BOUNDARY INFLOWS     5.4000E+03 0.0000E+00 1.8000E+03 3.6000E+03
 BOUNDARY OUTFLOWS    5.4000E+03 0.0000E+00 1.8000E+03 3.6000E+03
                      Check      Initial    Lateral in Boundary F 
                                            flow       low        
 CONCENTRATION                           
 SWT_Normal           1.0000E+00 0.0000E+00 2.7624E-01 7.2376E-01
 
1
                                             Fraction calculation Sobek-WQ           
                                                                                     
                                                                                     
                                             T0: 2012.01.01 00:00:00  (scu=       1s)
  62.50% Completed


 DUMP OF INTERMEDIATE RESULTS IN SELECTED SEGMENTS
  TIME =   2D 12H  0M  0S .
 
 TOTAL MASS IN SYSTEM 3.3042E+03 0.0000E+00 9.1278E+02 2.3915E+03
 CHANGES BY PROCESSES 0.0000E+00 0.0000E+00 0.0000E+00 0.0000E+00
 CHANGES BY LOADS     0.0000E+00 0.0000E+00 0.0000E+00 0.0000E+00
 BOUNDARY INFLOWS     5.4000E+03 0.0000E+00 1.8000E+03 3.6000E+03
 BOUNDARY OUTFLOWS    5.4000E+03 0.0000E+00 1.8000E+03 3.6000E+03
                      Check      Initial    Lateral in Boundary F 
                                            flow       low        
 CONCENTRATION                           
 SWT_Normal           1.0000E+00 0.0000E+00 2.7624E-01 7.2376E-01
 
  63.54% Completed


 DUMP OF INTERMEDIATE RESULTS IN SELECTED SEGMENTS
  TIME =   2D 13H  0M  0S .
 
 TOTAL MASS IN SYSTEM 3.3042E+03 0.0000E+00 9.1278E+02 2.3915E+03
 CHANGES BY PROCESSES 0.0000E+00 0.0000E+00 0.0000E+00 0.0000E+00
 CHANGES BY LOADS     0.0000E+00 0.0000E+00 0.0000E+00 0.0000E+00
 BOUNDARY INFLOWS     5.4000E+03 0.0000E+00 1.8000E+03 3.6000E+03
 BOUNDARY OUTFLOWS    5.4000E+03 0.0000E+00 1.8000E+03 3.6000E+03
                      Check      Initial    Lateral in Boundary F 
                                            flow       low        
 CONCENTRATION                           
 SWT_Normal           1.0000E+00 0.0000E+00 2.7624E-01 7.2376E-01
 
  64.58% Completed


 DUMP OF INTERMEDIATE RESULTS IN SELECTED SEGMENTS
  TIME =   2D 14H  0M  0S .
 
 TOTAL MASS IN SYSTEM 3.3042E+03 0.0000E+00 9.1278E+02 2.3915E+03
 CHANGES BY PROCESSES 0.0000E+00 0.0000E+00 0.0000E+00 0.0000E+00
 CHANGES BY LOADS     0.0000E+00 0.0000E+00 0.0000E+00 0.0000E+00
 BOUNDARY INFLOWS     5.4000E+03 0.0000E+00 1.8000E+03 3.6000E+03
 BOUNDARY OUTFLOWS    5.4000E+03 0.0000E+00 1.8000E+03 3.6000E+03
                      Check      Initial    Lateral in Boundary F 
                                            flow       low        
 CONCENTRATION                           
 SWT_Normal           1.0000E+00 0.0000E+00 2.7624E-01 7.2376E-01
 
  65.62% Completed


 DUMP OF INTERMEDIATE RESULTS IN SELECTED SEGMENTS
  TIME =   2D 15H  0M  0S .
 
 TOTAL MASS IN SYSTEM 3.3042E+03 0.0000E+00 9.1278E+02 2.3915E+03
 CHANGES BY PROCESSES 0.0000E+00 0.0000E+00 0.0000E+00 0.0000E+00
 CHANGES BY LOADS     0.0000E+00 0.0000E+00 0.0000E+00 0.0000E+00
 BOUNDARY INFLOWS     5.4000E+03 0.0000E+00 1.8000E+03 3.6000E+03
 BOUNDARY OUTFLOWS    5.4000E+03 0.0000E+00 1.8000E+03 3.6000E+03
                      Check      Initial    Lateral in Boundary F 
                                            flow       low        
 CONCENTRATION                           
 SWT_Normal           1.0000E+00 0.0000E+00 2.7624E-01 7.2376E-01
 
1
                                             Fraction calculation Sobek-WQ           
                                                                                     
                                                                                     
                                             T0: 2012.01.01 00:00:00  (scu=       1s)
  66.67% Completed


 DUMP OF INTERMEDIATE RESULTS IN SELECTED SEGMENTS
  TIME =   2D 16H  0M  0S .
 
 TOTAL MASS IN SYSTEM 3.3042E+03 0.0000E+00 9.1278E+02 2.3915E+03
 CHANGES BY PROCESSES 0.0000E+00 0.0000E+00 0.0000E+00 0.0000E+00
 CHANGES BY LOADS     0.0000E+00 0.0000E+00 0.0000E+00 0.0000E+00
 BOUNDARY INFLOWS     5.4000E+03 0.0000E+00 1.8000E+03 3.6000E+03
 BOUNDARY OUTFLOWS    5.4000E+03 0.0000E+00 1.8000E+03 3.6000E+03
                      Check      Initial    Lateral in Boundary F 
                                            flow       low        
 CONCENTRATION                           
 SWT_Normal           1.0000E+00 0.0000E+00 2.7624E-01 7.2376E-01
 
  67.71% Completed


 DUMP OF INTERMEDIATE RESULTS IN SELECTED SEGMENTS
  TIME =   2D 17H  0M  0S .
 
 TOTAL MASS IN SYSTEM 3.3042E+03 0.0000E+00 9.1278E+02 2.3915E+03
 CHANGES BY PROCESSES 0.0000E+00 0.0000E+00 0.0000E+00 0.0000E+00
 CHANGES BY LOADS     0.0000E+00 0.0000E+00 0.0000E+00 0.0000E+00
 BOUNDARY INFLOWS     5.4000E+03 0.0000E+00 1.8000E+03 3.6000E+03
 BOUNDARY OUTFLOWS    5.4000E+03 0.0000E+00 1.8000E+03 3.6000E+03
                      Check      Initial    Lateral in Boundary F 
                                            flow       low        
 CONCENTRATION                           
 SWT_Normal           1.0000E+00 0.0000E+00 2.7624E-01 7.2376E-01
 
  68.75% Completed


 DUMP OF INTERMEDIATE RESULTS IN SELECTED SEGMENTS
  TIME =   2D 18H  0M  0S .
 
 TOTAL MASS IN SYSTEM 3.3042E+03 0.0000E+00 9.1278E+02 2.3915E+03
 CHANGES BY PROCESSES 0.0000E+00 0.0000E+00 0.0000E+00 0.0000E+00
 CHANGES BY LOADS     0.0000E+00 0.0000E+00 0.0000E+00 0.0000E+00
 BOUNDARY INFLOWS     5.4000E+03 0.0000E+00 1.8000E+03 3.6000E+03
 BOUNDARY OUTFLOWS    5.4000E+03 0.0000E+00 1.8000E+03 3.6000E+03
                      Check      Initial    Lateral in Boundary F 
                                            flow       low        
 CONCENTRATION                           
 SWT_Normal           1.0000E+00 0.0000E+00 2.7624E-01 7.2376E-01
 
  69.79% Completed


 DUMP OF INTERMEDIATE RESULTS IN SELECTED SEGMENTS
  TIME =   2D 19H  0M  0S .
 
 TOTAL MASS IN SYSTEM 3.3042E+03 0.0000E+00 9.1278E+02 2.3915E+03
 CHANGES BY PROCESSES 0.0000E+00 0.0000E+00 0.0000E+00 0.0000E+00
 CHANGES BY LOADS     0.0000E+00 0.0000E+00 0.0000E+00 0.0000E+00
 BOUNDARY INFLOWS     5.4000E+03 0.0000E+00 1.8000E+03 3.6000E+03
 BOUNDARY OUTFLOWS    5.4000E+03 0.0000E+00 1.8000E+03 3.6000E+03
                      Check      Initial    Lateral in Boundary F 
                                            flow       low        
 CONCENTRATION                           
 SWT_Normal           1.0000E+00 0.0000E+00 2.7624E-01 7.2376E-01
 
1
                                             Fraction calculation Sobek-WQ           
                                                                                     
                                                                                     
                                             T0: 2012.01.01 00:00:00  (scu=       1s)
  70.83% Completed


 DUMP OF INTERMEDIATE RESULTS IN SELECTED SEGMENTS
  TIME =   2D 20H  0M  0S .
 
 TOTAL MASS IN SYSTEM 3.3042E+03 0.0000E+00 9.1278E+02 2.3915E+03
 CHANGES BY PROCESSES 0.0000E+00 0.0000E+00 0.0000E+00 0.0000E+00
 CHANGES BY LOADS     0.0000E+00 0.0000E+00 0.0000E+00 0.0000E+00
 BOUNDARY INFLOWS     5.4000E+03 0.0000E+00 1.8000E+03 3.6000E+03
 BOUNDARY OUTFLOWS    5.4000E+03 0.0000E+00 1.8000E+03 3.6000E+03
                      Check      Initial    Lateral in Boundary F 
                                            flow       low        
 CONCENTRATION                           
 SWT_Normal           1.0000E+00 0.0000E+00 2.7624E-01 7.2376E-01
 
  71.88% Completed


 DUMP OF INTERMEDIATE RESULTS IN SELECTED SEGMENTS
  TIME =   2D 21H  0M  0S .
 
 TOTAL MASS IN SYSTEM 3.3042E+03 0.0000E+00 9.1278E+02 2.3915E+03
 CHANGES BY PROCESSES 0.0000E+00 0.0000E+00 0.0000E+00 0.0000E+00
 CHANGES BY LOADS     0.0000E+00 0.0000E+00 0.0000E+00 0.0000E+00
 BOUNDARY INFLOWS     5.4000E+03 0.0000E+00 1.8000E+03 3.6000E+03
 BOUNDARY OUTFLOWS    5.4000E+03 0.0000E+00 1.8000E+03 3.6000E+03
                      Check      Initial    Lateral in Boundary F 
                                            flow       low        
 CONCENTRATION                           
 SWT_Normal           1.0000E+00 0.0000E+00 2.7624E-01 7.2376E-01
 
  72.92% Completed


 DUMP OF INTERMEDIATE RESULTS IN SELECTED SEGMENTS
  TIME =   2D 22H  0M  0S .
 
 TOTAL MASS IN SYSTEM 3.3042E+03 0.0000E+00 9.1278E+02 2.3915E+03
 CHANGES BY PROCESSES 0.0000E+00 0.0000E+00 0.0000E+00 0.0000E+00
 CHANGES BY LOADS     0.0000E+00 0.0000E+00 0.0000E+00 0.0000E+00
 BOUNDARY INFLOWS     5.4000E+03 0.0000E+00 1.8000E+03 3.6000E+03
 BOUNDARY OUTFLOWS    5.4000E+03 0.0000E+00 1.8000E+03 3.6000E+03
                      Check      Initial    Lateral in Boundary F 
                                            flow       low        
 CONCENTRATION                           
 SWT_Normal           1.0000E+00 0.0000E+00 2.7624E-01 7.2376E-01
 
  73.96% Completed


 DUMP OF INTERMEDIATE RESULTS IN SELECTED SEGMENTS
  TIME =   2D 23H  0M  0S .
 
 TOTAL MASS IN SYSTEM 3.3042E+03 0.0000E+00 9.1278E+02 2.3915E+03
 CHANGES BY PROCESSES 0.0000E+00 0.0000E+00 0.0000E+00 0.0000E+00
 CHANGES BY LOADS     0.0000E+00 0.0000E+00 0.0000E+00 0.0000E+00
 BOUNDARY INFLOWS     5.4000E+03 0.0000E+00 1.8000E+03 3.6000E+03
 BOUNDARY OUTFLOWS    5.4000E+03 0.0000E+00 1.8000E+03 3.6000E+03
                      Check      Initial    Lateral in Boundary F 
                                            flow       low        
 CONCENTRATION                           
 SWT_Normal           1.0000E+00 0.0000E+00 2.7624E-01 7.2376E-01
 
1
                                             Fraction calculation Sobek-WQ           
                                                                                     
                                                                                     
                                             T0: 2012.01.01 00:00:00  (scu=       1s)
  75.00% Completed


 DUMP OF INTERMEDIATE RESULTS IN SELECTED SEGMENTS
  TIME =   3D  0H  0M  0S .
 
 TOTAL MASS IN SYSTEM 3.3042E+03 0.0000E+00 9.1278E+02 2.3915E+03
 CHANGES BY PROCESSES 0.0000E+00 0.0000E+00 0.0000E+00 0.0000E+00
 CHANGES BY LOADS     0.0000E+00 0.0000E+00 0.0000E+00 0.0000E+00
 BOUNDARY INFLOWS     5.4000E+03 0.0000E+00 1.8000E+03 3.6000E+03
 BOUNDARY OUTFLOWS    5.4000E+03 0.0000E+00 1.8000E+03 3.6000E+03
                      Check      Initial    Lateral in Boundary F 
                                            flow       low        
 CONCENTRATION                           
 SWT_Normal           1.0000E+00 0.0000E+00 2.7624E-01 7.2376E-01
 
  76.04% Completed


 DUMP OF INTERMEDIATE RESULTS IN SELECTED SEGMENTS
  TIME =   3D  1H  0M  0S .
 
 TOTAL MASS IN SYSTEM 3.3042E+03 0.0000E+00 9.1278E+02 2.3915E+03
 CHANGES BY PROCESSES 0.0000E+00 0.0000E+00 0.0000E+00 0.0000E+00
 CHANGES BY LOADS     0.0000E+00 0.0000E+00 0.0000E+00 0.0000E+00
 BOUNDARY INFLOWS     5.4000E+03 0.0000E+00 1.8000E+03 3.6000E+03
 BOUNDARY OUTFLOWS    5.4000E+03 0.0000E+00 1.8000E+03 3.6000E+03
                      Check      Initial    Lateral in Boundary F 
                                            flow       low        
 CONCENTRATION                           
 SWT_Normal           1.0000E+00 0.0000E+00 2.7624E-01 7.2376E-01
 
  77.08% Completed


 DUMP OF INTERMEDIATE RESULTS IN SELECTED SEGMENTS
  TIME =   3D  2H  0M  0S .
 
 TOTAL MASS IN SYSTEM 3.3042E+03 0.0000E+00 9.1278E+02 2.3915E+03
 CHANGES BY PROCESSES 0.0000E+00 0.0000E+00 0.0000E+00 0.0000E+00
 CHANGES BY LOADS     0.0000E+00 0.0000E+00 0.0000E+00 0.0000E+00
 BOUNDARY INFLOWS     5.4000E+03 0.0000E+00 1.8000E+03 3.6000E+03
 BOUNDARY OUTFLOWS    5.4000E+03 0.0000E+00 1.8000E+03 3.6000E+03
                      Check      Initial    Lateral in Boundary F 
                                            flow       low        
 CONCENTRATION                           
 SWT_Normal           1.0000E+00 0.0000E+00 2.7624E-01 7.2376E-01
 
  78.12% Completed


 DUMP OF INTERMEDIATE RESULTS IN SELECTED SEGMENTS
  TIME =   3D  3H  0M  0S .
 
 TOTAL MASS IN SYSTEM 3.3042E+03 0.0000E+00 9.1278E+02 2.3915E+03
 CHANGES BY PROCESSES 0.0000E+00 0.0000E+00 0.0000E+00 0.0000E+00
 CHANGES BY LOADS     0.0000E+00 0.0000E+00 0.0000E+00 0.0000E+00
 BOUNDARY INFLOWS     5.4000E+03 0.0000E+00 1.8000E+03 3.6000E+03
 BOUNDARY OUTFLOWS    5.4000E+03 0.0000E+00 1.8000E+03 3.6000E+03
                      Check      Initial    Lateral in Boundary F 
                                            flow       low        
 CONCENTRATION                           
 SWT_Normal           1.0000E+00 0.0000E+00 2.7624E-01 7.2376E-01
 
1
                                             Fraction calculation Sobek-WQ           
                                                                                     
                                                                                     
                                             T0: 2012.01.01 00:00:00  (scu=       1s)
  79.17% Completed


 DUMP OF INTERMEDIATE RESULTS IN SELECTED SEGMENTS
  TIME =   3D  4H  0M  0S .
 
 TOTAL MASS IN SYSTEM 3.3042E+03 0.0000E+00 9.1278E+02 2.3915E+03
 CHANGES BY PROCESSES 0.0000E+00 0.0000E+00 0.0000E+00 0.0000E+00
 CHANGES BY LOADS     0.0000E+00 0.0000E+00 0.0000E+00 0.0000E+00
 BOUNDARY INFLOWS     5.4000E+03 0.0000E+00 1.8000E+03 3.6000E+03
 BOUNDARY OUTFLOWS    5.4000E+03 0.0000E+00 1.8000E+03 3.6000E+03
                      Check      Initial    Lateral in Boundary F 
                                            flow       low        
 CONCENTRATION                           
 SWT_Normal           1.0000E+00 0.0000E+00 2.7624E-01 7.2376E-01
 
  80.21% Completed


 DUMP OF INTERMEDIATE RESULTS IN SELECTED SEGMENTS
  TIME =   3D  5H  0M  0S .
 
 TOTAL MASS IN SYSTEM 3.3042E+03 0.0000E+00 9.1278E+02 2.3915E+03
 CHANGES BY PROCESSES 0.0000E+00 0.0000E+00 0.0000E+00 0.0000E+00
 CHANGES BY LOADS     0.0000E+00 0.0000E+00 0.0000E+00 0.0000E+00
 BOUNDARY INFLOWS     5.4000E+03 0.0000E+00 1.8000E+03 3.6000E+03
 BOUNDARY OUTFLOWS    5.4000E+03 0.0000E+00 1.8000E+03 3.6000E+03
                      Check      Initial    Lateral in Boundary F 
                                            flow       low        
 CONCENTRATION                           
 SWT_Normal           1.0000E+00 0.0000E+00 2.7624E-01 7.2376E-01
 
  81.25% Completed


 DUMP OF INTERMEDIATE RESULTS IN SELECTED SEGMENTS
  TIME =   3D  6H  0M  0S .
 
 TOTAL MASS IN SYSTEM 3.3042E+03 0.0000E+00 9.1278E+02 2.3915E+03
 CHANGES BY PROCESSES 0.0000E+00 0.0000E+00 0.0000E+00 0.0000E+00
 CHANGES BY LOADS     0.0000E+00 0.0000E+00 0.0000E+00 0.0000E+00
 BOUNDARY INFLOWS     5.4000E+03 0.0000E+00 1.8000E+03 3.6000E+03
 BOUNDARY OUTFLOWS    5.4000E+03 0.0000E+00 1.8000E+03 3.6000E+03
                      Check      Initial    Lateral in Boundary F 
                                            flow       low        
 CONCENTRATION                           
 SWT_Normal           1.0000E+00 0.0000E+00 2.7624E-01 7.2376E-01
 
  82.29% Completed


 DUMP OF INTERMEDIATE RESULTS IN SELECTED SEGMENTS
  TIME =   3D  7H  0M  0S .
 
 TOTAL MASS IN SYSTEM 3.3042E+03 0.0000E+00 9.1278E+02 2.3915E+03
 CHANGES BY PROCESSES 0.0000E+00 0.0000E+00 0.0000E+00 0.0000E+00
 CHANGES BY LOADS     0.0000E+00 0.0000E+00 0.0000E+00 0.0000E+00
 BOUNDARY INFLOWS     5.4000E+03 0.0000E+00 1.8000E+03 3.6000E+03
 BOUNDARY OUTFLOWS    5.4000E+03 0.0000E+00 1.8000E+03 3.6000E+03
                      Check      Initial    Lateral in Boundary F 
                                            flow       low        
 CONCENTRATION                           
 SWT_Normal           1.0000E+00 0.0000E+00 2.7624E-01 7.2376E-01
 
1
                                             Fraction calculation Sobek-WQ           
                                                                                     
                                                                                     
                                             T0: 2012.01.01 00:00:00  (scu=       1s)
  83.33% Completed


 DUMP OF INTERMEDIATE RESULTS IN SELECTED SEGMENTS
  TIME =   3D  8H  0M  0S .
 
 TOTAL MASS IN SYSTEM 3.3042E+03 0.0000E+00 9.1278E+02 2.3915E+03
 CHANGES BY PROCESSES 0.0000E+00 0.0000E+00 0.0000E+00 0.0000E+00
 CHANGES BY LOADS     0.0000E+00 0.0000E+00 0.0000E+00 0.0000E+00
 BOUNDARY INFLOWS     5.4000E+03 0.0000E+00 1.8000E+03 3.6000E+03
 BOUNDARY OUTFLOWS    5.4000E+03 0.0000E+00 1.8000E+03 3.6000E+03
                      Check      Initial    Lateral in Boundary F 
                                            flow       low        
 CONCENTRATION                           
 SWT_Normal           1.0000E+00 0.0000E+00 2.7624E-01 7.2376E-01
 
  84.38% Completed


 DUMP OF INTERMEDIATE RESULTS IN SELECTED SEGMENTS
  TIME =   3D  9H  0M  0S .
 
 TOTAL MASS IN SYSTEM 3.3042E+03 0.0000E+00 9.1278E+02 2.3915E+03
 CHANGES BY PROCESSES 0.0000E+00 0.0000E+00 0.0000E+00 0.0000E+00
 CHANGES BY LOADS     0.0000E+00 0.0000E+00 0.0000E+00 0.0000E+00
 BOUNDARY INFLOWS     5.4000E+03 0.0000E+00 1.8000E+03 3.6000E+03
 BOUNDARY OUTFLOWS    5.4000E+03 0.0000E+00 1.8000E+03 3.6000E+03
                      Check      Initial    Lateral in Boundary F 
                                            flow       low        
 CONCENTRATION                           
 SWT_Normal           1.0000E+00 0.0000E+00 2.7624E-01 7.2376E-01
 
  85.42% Completed


 DUMP OF INTERMEDIATE RESULTS IN SELECTED SEGMENTS
  TIME =   3D 10H  0M  0S .
 
 TOTAL MASS IN SYSTEM 3.3042E+03 0.0000E+00 9.1278E+02 2.3915E+03
 CHANGES BY PROCESSES 0.0000E+00 0.0000E+00 0.0000E+00 0.0000E+00
 CHANGES BY LOADS     0.0000E+00 0.0000E+00 0.0000E+00 0.0000E+00
 BOUNDARY INFLOWS     5.4000E+03 0.0000E+00 1.8000E+03 3.6000E+03
 BOUNDARY OUTFLOWS    5.4000E+03 0.0000E+00 1.8000E+03 3.6000E+03
                      Check      Initial    Lateral in Boundary F 
                                            flow       low        
 CONCENTRATION                           
 SWT_Normal           1.0000E+00 0.0000E+00 2.7624E-01 7.2376E-01
 
  86.46% Completed


 DUMP OF INTERMEDIATE RESULTS IN SELECTED SEGMENTS
  TIME =   3D 11H  0M  0S .
 
 TOTAL MASS IN SYSTEM 3.3042E+03 0.0000E+00 9.1278E+02 2.3915E+03
 CHANGES BY PROCESSES 0.0000E+00 0.0000E+00 0.0000E+00 0.0000E+00
 CHANGES BY LOADS     0.0000E+00 0.0000E+00 0.0000E+00 0.0000E+00
 BOUNDARY INFLOWS     5.4000E+03 0.0000E+00 1.8000E+03 3.6000E+03
 BOUNDARY OUTFLOWS    5.4000E+03 0.0000E+00 1.8000E+03 3.6000E+03
                      Check      Initial    Lateral in Boundary F 
                                            flow       low        
 CONCENTRATION                           
 SWT_Normal           1.0000E+00 0.0000E+00 2.7624E-01 7.2376E-01
 
1
                                             Fraction calculation Sobek-WQ           
                                                                                     
                                                                                     
                                             T0: 2012.01.01 00:00:00  (scu=       1s)
  87.50% Completed


 DUMP OF INTERMEDIATE RESULTS IN SELECTED SEGMENTS
  TIME =   3D 12H  0M  0S .
 
 TOTAL MASS IN SYSTEM 3.3042E+03 0.0000E+00 9.1278E+02 2.3915E+03
 CHANGES BY PROCESSES 0.0000E+00 0.0000E+00 0.0000E+00 0.0000E+00
 CHANGES BY LOADS     0.0000E+00 0.0000E+00 0.0000E+00 0.0000E+00
 BOUNDARY INFLOWS     5.4000E+03 0.0000E+00 1.8000E+03 3.6000E+03
 BOUNDARY OUTFLOWS    5.4000E+03 0.0000E+00 1.8000E+03 3.6000E+03
                      Check      Initial    Lateral in Boundary F 
                                            flow       low        
 CONCENTRATION                           
 SWT_Normal           1.0000E+00 0.0000E+00 2.7624E-01 7.2376E-01
 
  88.54% Completed


 DUMP OF INTERMEDIATE RESULTS IN SELECTED SEGMENTS
  TIME =   3D 13H  0M  0S .
 
 TOTAL MASS IN SYSTEM 3.3042E+03 0.0000E+00 9.1278E+02 2.3915E+03
 CHANGES BY PROCESSES 0.0000E+00 0.0000E+00 0.0000E+00 0.0000E+00
 CHANGES BY LOADS     0.0000E+00 0.0000E+00 0.0000E+00 0.0000E+00
 BOUNDARY INFLOWS     5.4000E+03 0.0000E+00 1.8000E+03 3.6000E+03
 BOUNDARY OUTFLOWS    5.4000E+03 0.0000E+00 1.8000E+03 3.6000E+03
                      Check      Initial    Lateral in Boundary F 
                                            flow       low        
 CONCENTRATION                           
 SWT_Normal           1.0000E+00 0.0000E+00 2.7624E-01 7.2376E-01
 
  89.58% Completed


 DUMP OF INTERMEDIATE RESULTS IN SELECTED SEGMENTS
  TIME =   3D 14H  0M  0S .
 
 TOTAL MASS IN SYSTEM 3.3042E+03 0.0000E+00 9.1278E+02 2.3915E+03
 CHANGES BY PROCESSES 0.0000E+00 0.0000E+00 0.0000E+00 0.0000E+00
 CHANGES BY LOADS     0.0000E+00 0.0000E+00 0.0000E+00 0.0000E+00
 BOUNDARY INFLOWS     5.4000E+03 0.0000E+00 1.8000E+03 3.6000E+03
 BOUNDARY OUTFLOWS    5.4000E+03 0.0000E+00 1.8000E+03 3.6000E+03
                      Check      Initial    Lateral in Boundary F 
                                            flow       low        
 CONCENTRATION                           
 SWT_Normal           1.0000E+00 0.0000E+00 2.7624E-01 7.2376E-01
 
  90.62% Completed


 DUMP OF INTERMEDIATE RESULTS IN SELECTED SEGMENTS
  TIME =   3D 15H  0M  0S .
 
 TOTAL MASS IN SYSTEM 3.3042E+03 0.0000E+00 9.1278E+02 2.3915E+03
 CHANGES BY PROCESSES 0.0000E+00 0.0000E+00 0.0000E+00 0.0000E+00
 CHANGES BY LOADS     0.0000E+00 0.0000E+00 0.0000E+00 0.0000E+00
 BOUNDARY INFLOWS     5.4000E+03 0.0000E+00 1.8000E+03 3.6000E+03
 BOUNDARY OUTFLOWS    5.4000E+03 0.0000E+00 1.8000E+03 3.6000E+03
                      Check      Initial    Lateral in Boundary F 
                                            flow       low        
 CONCENTRATION                           
 SWT_Normal           1.0000E+00 0.0000E+00 2.7624E-01 7.2376E-01
 
1
                                             Fraction calculation Sobek-WQ           
                                                                                     
                                                                                     
                                             T0: 2012.01.01 00:00:00  (scu=       1s)
  91.67% Completed


 DUMP OF INTERMEDIATE RESULTS IN SELECTED SEGMENTS
  TIME =   3D 16H  0M  0S .
 
 TOTAL MASS IN SYSTEM 3.3042E+03 0.0000E+00 9.1278E+02 2.3915E+03
 CHANGES BY PROCESSES 0.0000E+00 0.0000E+00 0.0000E+00 0.0000E+00
 CHANGES BY LOADS     0.0000E+00 0.0000E+00 0.0000E+00 0.0000E+00
 BOUNDARY INFLOWS     5.4000E+03 0.0000E+00 1.8000E+03 3.6000E+03
 BOUNDARY OUTFLOWS    5.4000E+03 0.0000E+00 1.8000E+03 3.6000E+03
                      Check      Initial    Lateral in Boundary F 
                                            flow       low        
 CONCENTRATION                           
 SWT_Normal           1.0000E+00 0.0000E+00 2.7624E-01 7.2376E-01
 
  92.71% Completed


 DUMP OF INTERMEDIATE RESULTS IN SELECTED SEGMENTS
  TIME =   3D 17H  0M  0S .
 
 TOTAL MASS IN SYSTEM 3.3042E+03 0.0000E+00 9.1278E+02 2.3915E+03
 CHANGES BY PROCESSES 0.0000E+00 0.0000E+00 0.0000E+00 0.0000E+00
 CHANGES BY LOADS     0.0000E+00 0.0000E+00 0.0000E+00 0.0000E+00
 BOUNDARY INFLOWS     5.4000E+03 0.0000E+00 1.8000E+03 3.6000E+03
 BOUNDARY OUTFLOWS    5.4000E+03 0.0000E+00 1.8000E+03 3.6000E+03
                      Check      Initial    Lateral in Boundary F 
                                            flow       low        
 CONCENTRATION                           
 SWT_Normal           1.0000E+00 0.0000E+00 2.7624E-01 7.2376E-01
 
  93.75% Completed


 DUMP OF INTERMEDIATE RESULTS IN SELECTED SEGMENTS
  TIME =   3D 18H  0M  0S .
 
 TOTAL MASS IN SYSTEM 3.3042E+03 0.0000E+00 9.1278E+02 2.3915E+03
 CHANGES BY PROCESSES 0.0000E+00 0.0000E+00 0.0000E+00 0.0000E+00
 CHANGES BY LOADS     0.0000E+00 0.0000E+00 0.0000E+00 0.0000E+00
 BOUNDARY INFLOWS     5.4000E+03 0.0000E+00 1.8000E+03 3.6000E+03
 BOUNDARY OUTFLOWS    5.4000E+03 0.0000E+00 1.8000E+03 3.6000E+03
                      Check      Initial    Lateral in Boundary F 
                                            flow       low        
 CONCENTRATION                           
 SWT_Normal           1.0000E+00 0.0000E+00 2.7624E-01 7.2376E-01
 
  94.79% Completed


 DUMP OF INTERMEDIATE RESULTS IN SELECTED SEGMENTS
  TIME =   3D 19H  0M  0S .
 
 TOTAL MASS IN SYSTEM 3.3042E+03 0.0000E+00 9.1278E+02 2.3915E+03
 CHANGES BY PROCESSES 0.0000E+00 0.0000E+00 0.0000E+00 0.0000E+00
 CHANGES BY LOADS     0.0000E+00 0.0000E+00 0.0000E+00 0.0000E+00
 BOUNDARY INFLOWS     5.4000E+03 0.0000E+00 1.8000E+03 3.6000E+03
 BOUNDARY OUTFLOWS    5.4000E+03 0.0000E+00 1.8000E+03 3.6000E+03
                      Check      Initial    Lateral in Boundary F 
                                            flow       low        
 CONCENTRATION                           
 SWT_Normal           1.0000E+00 0.0000E+00 2.7624E-01 7.2376E-01
 
1
                                             Fraction calculation Sobek-WQ           
                                                                                     
                                                                                     
                                             T0: 2012.01.01 00:00:00  (scu=       1s)
  95.83% Completed


 DUMP OF INTERMEDIATE RESULTS IN SELECTED SEGMENTS
  TIME =   3D 20H  0M  0S .
 
 TOTAL MASS IN SYSTEM 3.3042E+03 0.0000E+00 9.1278E+02 2.3915E+03
 CHANGES BY PROCESSES 0.0000E+00 0.0000E+00 0.0000E+00 0.0000E+00
 CHANGES BY LOADS     0.0000E+00 0.0000E+00 0.0000E+00 0.0000E+00
 BOUNDARY INFLOWS     5.4000E+03 0.0000E+00 1.8000E+03 3.6000E+03
 BOUNDARY OUTFLOWS    5.4000E+03 0.0000E+00 1.8000E+03 3.6000E+03
                      Check      Initial    Lateral in Boundary F 
                                            flow       low        
 CONCENTRATION                           
 SWT_Normal           1.0000E+00 0.0000E+00 2.7624E-01 7.2376E-01
 
  96.88% Completed


 DUMP OF INTERMEDIATE RESULTS IN SELECTED SEGMENTS
  TIME =   3D 21H  0M  0S .
 
 TOTAL MASS IN SYSTEM 3.3042E+03 0.0000E+00 9.1278E+02 2.3915E+03
 CHANGES BY PROCESSES 0.0000E+00 0.0000E+00 0.0000E+00 0.0000E+00
 CHANGES BY LOADS     0.0000E+00 0.0000E+00 0.0000E+00 0.0000E+00
 BOUNDARY INFLOWS     5.4000E+03 0.0000E+00 1.8000E+03 3.6000E+03
 BOUNDARY OUTFLOWS    5.4000E+03 0.0000E+00 1.8000E+03 3.6000E+03
                      Check      Initial    Lateral in Boundary F 
                                            flow       low        
 CONCENTRATION                           
 SWT_Normal           1.0000E+00 0.0000E+00 2.7624E-01 7.2376E-01
 
  97.92% Completed


 DUMP OF INTERMEDIATE RESULTS IN SELECTED SEGMENTS
  TIME =   3D 22H  0M  0S .
 
 TOTAL MASS IN SYSTEM 3.3042E+03 0.0000E+00 9.1278E+02 2.3915E+03
 CHANGES BY PROCESSES 0.0000E+00 0.0000E+00 0.0000E+00 0.0000E+00
 CHANGES BY LOADS     0.0000E+00 0.0000E+00 0.0000E+00 0.0000E+00
 BOUNDARY INFLOWS     5.4000E+03 0.0000E+00 1.8000E+03 3.6000E+03
 BOUNDARY OUTFLOWS    5.4000E+03 0.0000E+00 1.8000E+03 3.6000E+03
                      Check      Initial    Lateral in Boundary F 
                                            flow       low        
 CONCENTRATION                           
 SWT_Normal           1.0000E+00 0.0000E+00 2.7624E-01 7.2376E-01
 
  98.96% Completed


 DUMP OF INTERMEDIATE RESULTS IN SELECTED SEGMENTS
  TIME =   3D 23H  0M  0S .
 
 TOTAL MASS IN SYSTEM 3.3042E+03 0.0000E+00 9.1278E+02 2.3915E+03
 CHANGES BY PROCESSES 0.0000E+00 0.0000E+00 0.0000E+00 0.0000E+00
 CHANGES BY LOADS     0.0000E+00 0.0000E+00 0.0000E+00 0.0000E+00
 BOUNDARY INFLOWS     5.4000E+03 0.0000E+00 1.8000E+03 3.6000E+03
 BOUNDARY OUTFLOWS    5.4000E+03 0.0000E+00 1.8000E+03 3.6000E+03
                      Check      Initial    Lateral in Boundary F 
                                            flow       low        
 CONCENTRATION                           
 SWT_Normal           1.0000E+00 0.0000E+00 2.7624E-01 7.2376E-01
 

 REWIND ON       UNIT:  23, READING: ..\work\Area.dat
 AT SIMULATION TIME:    4D  0H  0M  0S !
 TIME IN FILE:          4D  0H  0M  0S !

 REWIND ON       UNIT:  24, READING: ..\work\Flow.dat
 AT SIMULATION TIME:    4D  0H  0M  0S !
 TIME IN FILE:          4D  0H  0M  0S !
1
                                             Fraction calculation Sobek-WQ           
                                                                                     
                                                                                     
                                             T0: 2012.01.01 00:00:00  (scu=       1s)
 100.00% Completed


 DUMP OF INTERMEDIATE RESULTS IN SELECTED SEGMENTS
  TIME =   4D  0H  0M  0S .
 
 TOTAL MASS IN SYSTEM 3.3042E+03 0.0000E+00 9.1278E+02 2.3915E+03
 CHANGES BY PROCESSES 0.0000E+00 0.0000E+00 0.0000E+00 0.0000E+00
 CHANGES BY LOADS     0.0000E+00 0.0000E+00 0.0000E+00 0.0000E+00
 BOUNDARY INFLOWS     5.4000E+03 0.0000E+00 1.8000E+03 3.6000E+03
 BOUNDARY OUTFLOWS    5.4000E+03 0.0000E+00 1.8000E+03 3.6000E+03
                      Check      Initial    Lateral in Boundary F 
                                            flow       low        
 CONCENTRATION                           
 SWT_Normal           1.0000E+00 0.0000E+00 2.7624E-01 7.2376E-01
 
Performance timers:
|------------------------------------------------------------------------|
|Timer name                     |   cpu time        |    wall clock      |
|                               |-------------------|--------------------|
|                     | #times  |   sec     |  %    |    sec     |  %    |
|------------------------------------------------------------------------|
|Total                |       1 |       2.7 | 100.0 |        0.4 | 100.0 | 
|------------------------------------------------------------------------|
| *** In init, simulation:                                               |
|------------------------------------------------------------------------|
|Initialization       |       1 |       0.0 |   0.0 |        0.0 |   0.0 | 
|Integrat.routine 15  |       1 |       2.7 | 100.0 |        0.4 | 100.0 | 
|Total:               |         |       2.7 | 100.0 |        0.4 | 100.0 | 
|------------------------------------------------------------------------|
| *** In integration routine:                                            |
|------------------------------------------------------------------------|
|Total Integration:   |         |       0.0 |   0.0 |        0.0 |   0.0 | 
|------------------------------------------------------------------------|
| *** In processes library:                                              |
|------------------------------------------------------------------------|
|Total Processes:     |         |       0.0 |   0.0 |        0.0 |   0.0 | 
|------------------------------------------------------------------------|
| *** In CouPLib communications library:                                 |
|------------------------------------------------------------------------|
|Index-sets           |       6 |       0.0 |   0.0 |        0.0 |   0.0 | 
|Interfaces           |       6 |       0.0 |   0.0 |        0.0 |   0.0 | 
|Total Communication: |         |       0.0 |   0.0 |        0.0 |   0.0 | 
|------------------------------------------------------------------------|
 
 Simulation ended normal
 Execution stop : 2013/12/03 14:20:51 
