07-05 16:13 root         INFO     Converting from Sobek3 to D-Flow FM: Flow1D.md1d
07-05 16:13 sobek3Reader INFO     Reading Sobek files
07-05 16:13 sobek3Reader INFO     Number of Nodes     :11
07-05 16:13 sobek3Reader INFO     Number of Branches  :7
07-05 16:13 sobek3Reader INFO     Number of Boundaries:8
07-05 16:13 converter    INFO     Converting
07-05 16:13 FMWriter     INFO     Writing FM files
07-05 16:13 UgridWriter  INFO     Writing Ugrid file
07-05 16:13 root         INFO     Finished
