  Using options from ini file : delwaq.ini
 Delft3D-WAQ version  4.5204 16-03-2009
 Only to be used by SOBEK licensee                          
 (c) Deltares
 Execution start: 2013/12/06 15:04:37 
 total real    array space:       2507
 total integer array space:       2188
 total CHARACTER*20  space:        216
1                    Fraction calculation Sobek-WQ           
                                                             

                                                             
                     T0: 2012.01.01 00:00:00  (scu=       1s)

                     Initialisation from system file completed.
 partit: noseg,nolay=          13           1 , nseghr=          13
 partit: npart=  1, assigning all segments to part "npart", none to other parts
 
 CONSTANT ON UNIT:        22, READING: delwaq-dispersi.wrk                                                                                                                                                                                                                                            
 SIMULATION TIME :  0D  0H  0M  0S ! 
 TIME IN FILE    :  0D  0H  0M  0S ! 
 CONSTANT ON UNIT:        26, READING: ..\work\Length.dat                                                                                                                                                                                                                                             
 SIMULATION TIME :  0D  0H  0M  0S ! 
 TIME IN FILE    :  0D  0H  0M  0S ! 
  Closure error correction disabled
 
 Initialising numerical options for method 15...18
 
 Preconditioner switch not found, using default
 switch = 3, corrections based on lower and upper 
 
 Maximum number of iterations not found, using default
 Maximum number of iterations set to :   100
 
 Relative tolerance not found, using default
 Relative tolerance set to :0.100E-06
 
 Scaling switch not found, using default
 switch = 1, scaling is switched on
 
 Iteration report switch found in input
 switch = 0, iteration report is switched off
 
 
 Extra functionality DLWQTR
 End extra functionality DLWQTR
1
                                             Fraction calculation Sobek-WQ           
                                                                                     
                                                                                     
                                             T0: 2012.01.01 00:00:00  (scu=       1s)
   0.00% Completed


 DUMP OF INTERMEDIATE RESULTS IN SELECTED SEGMENTS
  TIME =   0D  0H  0M  0S .
 
 TOTAL MASS IN SYSTEM 9.4158E+03 9.4158E+03 0.0000E+00 0.0000E+00 0.0000E+00
 CHANGES BY PROCESSES 0.0000E+00 0.0000E+00 0.0000E+00 0.0000E+00 0.0000E+00
 CHANGES BY LOADS     0.0000E+00 0.0000E+00 0.0000E+00 0.0000E+00 0.0000E+00
 BOUNDARY INFLOWS     0.0000E+00 0.0000E+00 0.0000E+00 0.0000E+00 0.0000E+00
 BOUNDARY OUTFLOWS    0.0000E+00 0.0000E+00 0.0000E+00 0.0000E+00 0.0000E+00
                      Check      Initial    Internal   Lateral in Boundary F 
                                                       flow       low        
 CONCENTRATION                           
 SWT_Normal           1.0000E+00 1.0000E+00 0.0000E+00 0.0000E+00 0.0000E+00
 
   1.04% Completed


 DUMP OF INTERMEDIATE RESULTS IN SELECTED SEGMENTS
  TIME =   0D  1H  0M  0S .
 
 TOTAL MASS IN SYSTEM 1.2301E+04 6.0258E+03 4.1865E+02 2.3659E+03 3.4910E+03
 CHANGES BY PROCESSES 0.0000E+00 0.0000E+00 0.0000E+00 0.0000E+00 0.0000E+00
 CHANGES BY LOADS     0.0000E+00 0.0000E+00 0.0000E+00 0.0000E+00 0.0000E+00
 BOUNDARY INFLOWS     9.2766E+03 0.0000E+00 3.1566E+03 2.5200E+03 3.6000E+03
 BOUNDARY OUTFLOWS    6.3911E+03 3.3900E+03 2.7379E+03 1.5414E+02 1.0904E+02
                      Check      Initial    Internal   Lateral in Boundary F 
                                                       flow       low        
 CONCENTRATION                           
 SWT_Normal           1.2985E+00 6.3606E-01 4.4191E-02 2.4973E-01 3.6849E-01
 
   2.08% Completed


 DUMP OF INTERMEDIATE RESULTS IN SELECTED SEGMENTS
  TIME =   0D  2H  0M  0S .
 
 TOTAL MASS IN SYSTEM 1.5251E+04 4.5189E+03 4.2192E+02 4.0986E+03 6.2114E+03
 CHANGES BY PROCESSES 0.0000E+00 0.0000E+00 0.0000E+00 0.0000E+00 0.0000E+00
 CHANGES BY LOADS     0.0000E+00 0.0000E+00 0.0000E+00 0.0000E+00 0.0000E+00
 BOUNDARY INFLOWS     9.3728E+03 0.0000E+00 3.2528E+03 2.5200E+03 3.6000E+03
 BOUNDARY OUTFLOWS    6.4232E+03 1.5068E+03 3.2495E+03 7.8722E+02 8.7960E+02
                      Check      Initial    Internal   Lateral in Boundary F 
                                                       flow       low        
 CONCENTRATION                           
 SWT_Normal           1.6098E+00 4.7700E-01 4.4536E-02 4.3264E-01 6.5565E-01
 
   3.12% Completed


 DUMP OF INTERMEDIATE RESULTS IN SELECTED SEGMENTS
  TIME =   0D  3H  0M  0S .
 
 TOTAL MASS IN SYSTEM 1.8166E+04 4.1459E+03 4.2194E+02 5.4110E+03 8.1874E+03
 CHANGES BY PROCESSES 0.0000E+00 0.0000E+00 0.0000E+00 0.0000E+00 0.0000E+00
 CHANGES BY LOADS     0.0000E+00 0.0000E+00 0.0000E+00 0.0000E+00 0.0000E+00
 BOUNDARY INFLOWS     9.3740E+03 0.0000E+00 3.2540E+03 2.5200E+03 3.6000E+03
 BOUNDARY OUTFLOWS    6.4586E+03 3.7301E+02 3.2540E+03 1.2077E+03 1.6239E+03
                      Check      Initial    Internal   Lateral in Boundary F 
                                                       flow       low        
 CONCENTRATION                           
 SWT_Normal           1.9176E+00 4.3763E-01 4.4538E-02 5.7116E-01 8.6423E-01
 
1
                                             Fraction calculation Sobek-WQ           
                                                                                     
                                                                                     
                                             T0: 2012.01.01 00:00:00  (scu=       1s)
   4.17% Completed


 DUMP OF INTERMEDIATE RESULTS IN SELECTED SEGMENTS
  TIME =   0D  4H  0M  0S .
 
 TOTAL MASS IN SYSTEM 2.1064E+04 4.0907E+03 4.2194E+02 6.6191E+03 9.9322E+03
 CHANGES BY PROCESSES 0.0000E+00 0.0000E+00 0.0000E+00 0.0000E+00 0.0000E+00
 CHANGES BY LOADS     0.0000E+00 0.0000E+00 0.0000E+00 0.0000E+00 0.0000E+00
 BOUNDARY INFLOWS     9.3740E+03 0.0000E+00 3.2540E+03 2.5200E+03 3.6000E+03
 BOUNDARY OUTFLOWS    6.4762E+03 5.5210E+01 3.2540E+03 1.3118E+03 1.8552E+03
                      Check      Initial    Internal   Lateral in Boundary F 
                                                       flow       low        
 CONCENTRATION                           
 SWT_Normal           2.2234E+00 4.3180E-01 4.4538E-02 6.9869E-01 1.0484E+00
 
   5.21% Completed


 DUMP OF INTERMEDIATE RESULTS IN SELECTED SEGMENTS
  TIME =   0D  5H  0M  0S .
 
 TOTAL MASS IN SYSTEM 2.3959E+04 4.0848E+03 4.2194E+02 7.8125E+03 1.1639E+04
 CHANGES BY PROCESSES 0.0000E+00 0.0000E+00 0.0000E+00 0.0000E+00 0.0000E+00
 CHANGES BY LOADS     0.0000E+00 0.0000E+00 0.0000E+00 0.0000E+00 0.0000E+00
 BOUNDARY INFLOWS     9.3740E+03 0.0000E+00 3.2540E+03 2.5200E+03 3.6000E+03
 BOUNDARY OUTFLOWS    6.4796E+03 5.8920E+00 3.2540E+03 1.3267E+03 1.8930E+03
                      Check      Initial    Internal   Lateral in Boundary F 
                                                       flow       low        
 CONCENTRATION                           
 SWT_Normal           2.5290E+00 4.3118E-01 4.4538E-02 8.2465E-01 1.2286E+00
 
   6.25% Completed


 DUMP OF INTERMEDIATE RESULTS IN SELECTED SEGMENTS
  TIME =   0D  6H  0M  0S .
 
 TOTAL MASS IN SYSTEM 2.6853E+04 4.0843E+03 4.2194E+02 9.0043E+03 1.3342E+04
 CHANGES BY PROCESSES 0.0000E+00 0.0000E+00 0.0000E+00 0.0000E+00 0.0000E+00
 CHANGES BY LOADS     0.0000E+00 0.0000E+00 0.0000E+00 0.0000E+00 0.0000E+00
 BOUNDARY INFLOWS     9.3740E+03 0.0000E+00 3.2540E+03 2.5200E+03 3.6000E+03
 BOUNDARY OUTFLOWS    6.4800E+03 5.1137E-01 3.2540E+03 1.3282E+03 1.8972E+03
                      Check      Initial    Internal   Lateral in Boundary F 
                                                       flow       low        
 CONCENTRATION                           
 SWT_Normal           2.8344E+00 4.3112E-01 4.4538E-02 9.5045E-01 1.4083E+00
 
   7.29% Completed


 DUMP OF INTERMEDIATE RESULTS IN SELECTED SEGMENTS
  TIME =   0D  7H  0M  0S .
 
 TOTAL MASS IN SYSTEM 2.9747E+04 4.0843E+03 4.2194E+02 1.0196E+04 1.5044E+04
 CHANGES BY PROCESSES 0.0000E+00 0.0000E+00 0.0000E+00 0.0000E+00 0.0000E+00
 CHANGES BY LOADS     0.0000E+00 0.0000E+00 0.0000E+00 0.0000E+00 0.0000E+00
 BOUNDARY INFLOWS     9.3740E+03 0.0000E+00 3.2540E+03 2.5200E+03 3.6000E+03
 BOUNDARY OUTFLOWS    6.4800E+03 3.8856E-02 3.2540E+03 1.3283E+03 1.8976E+03
                      Check      Initial    Internal   Lateral in Boundary F 
                                                       flow       low        
 CONCENTRATION                           
 SWT_Normal           3.1399E+00 4.3112E-01 4.4538E-02 1.0762E+00 1.5880E+00
 
1
                                             Fraction calculation Sobek-WQ           
                                                                                     
                                                                                     
                                             T0: 2012.01.01 00:00:00  (scu=       1s)
   8.33% Completed


 DUMP OF INTERMEDIATE RESULTS IN SELECTED SEGMENTS
  TIME =   0D  8H  0M  0S .
 
 TOTAL MASS IN SYSTEM 3.2641E+04 4.0843E+03 4.2194E+02 1.1388E+04 1.6747E+04
 CHANGES BY PROCESSES 0.0000E+00 0.0000E+00 0.0000E+00 0.0000E+00 0.0000E+00
 CHANGES BY LOADS     0.0000E+00 0.0000E+00 0.0000E+00 0.0000E+00 0.0000E+00
 BOUNDARY INFLOWS     9.3740E+03 0.0000E+00 3.2540E+03 2.5200E+03 3.6000E+03
 BOUNDARY OUTFLOWS    6.4800E+03 2.7039E-03 3.2540E+03 1.3283E+03 1.8976E+03
                      Check      Initial    Internal   Lateral in Boundary F 
                                                       flow       low        
 CONCENTRATION                           
 SWT_Normal           3.4454E+00 4.3112E-01 4.4538E-02 1.2020E+00 1.7677E+00
 
   9.38% Completed


 DUMP OF INTERMEDIATE RESULTS IN SELECTED SEGMENTS
  TIME =   0D  9H  0M  0S .
 
 TOTAL MASS IN SYSTEM 3.5535E+04 4.0843E+03 4.2194E+02 1.2579E+04 1.8449E+04
 CHANGES BY PROCESSES 0.0000E+00 0.0000E+00 0.0000E+00 0.0000E+00 0.0000E+00
 CHANGES BY LOADS     0.0000E+00 0.0000E+00 0.0000E+00 0.0000E+00 0.0000E+00
 BOUNDARY INFLOWS     9.3740E+03 0.0000E+00 3.2540E+03 2.5200E+03 3.6000E+03
 BOUNDARY OUTFLOWS    6.4800E+03 1.7883E-04 3.2540E+03 1.3283E+03 1.8976E+03
                      Check      Initial    Internal   Lateral in Boundary F 
                                                       flow       low        
 CONCENTRATION                           
 SWT_Normal           3.7509E+00 4.3112E-01 4.4538E-02 1.3278E+00 1.9474E+00
 
  10.42% Completed


 DUMP OF INTERMEDIATE RESULTS IN SELECTED SEGMENTS
  TIME =   0D 10H  0M  0S .
 
 TOTAL MASS IN SYSTEM 3.8429E+04 4.0843E+03 4.2194E+02 1.3771E+04 2.0151E+04
 CHANGES BY PROCESSES 0.0000E+00 0.0000E+00 0.0000E+00 0.0000E+00 0.0000E+00
 CHANGES BY LOADS     0.0000E+00 0.0000E+00 0.0000E+00 0.0000E+00 0.0000E+00
 BOUNDARY INFLOWS     9.3740E+03 0.0000E+00 3.2540E+03 2.5200E+03 3.6000E+03
 BOUNDARY OUTFLOWS    6.4800E+03 1.4121E-05 3.2540E+03 1.3283E+03 1.8976E+03
                      Check      Initial    Internal   Lateral in Boundary F 
                                                       flow       low        
 CONCENTRATION                           
 SWT_Normal           4.0564E+00 4.3112E-01 4.4538E-02 1.4536E+00 2.1271E+00
 
  11.46% Completed


 DUMP OF INTERMEDIATE RESULTS IN SELECTED SEGMENTS
  TIME =   0D 11H  0M  0S .
 
 TOTAL MASS IN SYSTEM 4.1323E+04 4.0843E+03 4.2194E+02 1.4963E+04 2.1854E+04
 CHANGES BY PROCESSES 0.0000E+00 0.0000E+00 0.0000E+00 0.0000E+00 0.0000E+00
 CHANGES BY LOADS     0.0000E+00 0.0000E+00 0.0000E+00 0.0000E+00 0.0000E+00
 BOUNDARY INFLOWS     9.3740E+03 0.0000E+00 3.2540E+03 2.5200E+03 3.6000E+03
 BOUNDARY OUTFLOWS    6.4800E+03 1.8904E-07 3.2540E+03 1.3283E+03 1.8976E+03
                      Check      Initial    Internal   Lateral in Boundary F 
                                                       flow       low        
 CONCENTRATION                           
 SWT_Normal           4.3618E+00 4.3112E-01 4.4538E-02 1.5794E+00 2.3068E+00
 
1
                                             Fraction calculation Sobek-WQ           
                                                                                     
                                                                                     
                                             T0: 2012.01.01 00:00:00  (scu=       1s)
  12.50% Completed


 DUMP OF INTERMEDIATE RESULTS IN SELECTED SEGMENTS
  TIME =   0D 12H  0M  0S .
 
 TOTAL MASS IN SYSTEM 4.4217E+04 4.0843E+03 4.2194E+02 1.6154E+04 2.3556E+04
 CHANGES BY PROCESSES 0.0000E+00 0.0000E+00 0.0000E+00 0.0000E+00 0.0000E+00
 CHANGES BY LOADS     0.0000E+00 0.0000E+00 0.0000E+00 0.0000E+00 0.0000E+00
 BOUNDARY INFLOWS     9.3740E+03 0.0000E+00 3.2540E+03 2.5200E+03 3.6000E+03
 BOUNDARY OUTFLOWS    6.4800E+03 0.0000E+00 3.2540E+03 1.3283E+03 1.8976E+03
                      Check      Initial    Internal   Lateral in Boundary F 
                                                       flow       low        
 CONCENTRATION                           
 SWT_Normal           4.6673E+00 4.3112E-01 4.4538E-02 1.7052E+00 2.4865E+00
 
  13.54% Completed


 DUMP OF INTERMEDIATE RESULTS IN SELECTED SEGMENTS
  TIME =   0D 13H  0M  0S .
 
 TOTAL MASS IN SYSTEM 4.7111E+04 4.0843E+03 4.2194E+02 1.7346E+04 2.5259E+04
 CHANGES BY PROCESSES 0.0000E+00 0.0000E+00 0.0000E+00 0.0000E+00 0.0000E+00
 CHANGES BY LOADS     0.0000E+00 0.0000E+00 0.0000E+00 0.0000E+00 0.0000E+00
 BOUNDARY INFLOWS     9.3740E+03 0.0000E+00 3.2540E+03 2.5200E+03 3.6000E+03
 BOUNDARY OUTFLOWS    6.4800E+03 0.0000E+00 3.2540E+03 1.3283E+03 1.8976E+03
                      Check      Initial    Internal   Lateral in Boundary F 
                                                       flow       low        
 CONCENTRATION                           
 SWT_Normal           4.9728E+00 4.3112E-01 4.4538E-02 1.8310E+00 2.6662E+00
 
  14.58% Completed


 DUMP OF INTERMEDIATE RESULTS IN SELECTED SEGMENTS
  TIME =   0D 14H  0M  0S .
 
 TOTAL MASS IN SYSTEM 5.0005E+04 4.0843E+03 4.2194E+02 1.8537E+04 2.6961E+04
 CHANGES BY PROCESSES 0.0000E+00 0.0000E+00 0.0000E+00 0.0000E+00 0.0000E+00
 CHANGES BY LOADS     0.0000E+00 0.0000E+00 0.0000E+00 0.0000E+00 0.0000E+00
 BOUNDARY INFLOWS     9.3740E+03 0.0000E+00 3.2540E+03 2.5200E+03 3.6000E+03
 BOUNDARY OUTFLOWS    6.4800E+03 0.0000E+00 3.2540E+03 1.3283E+03 1.8976E+03
                      Check      Initial    Internal   Lateral in Boundary F 
                                                       flow       low        
 CONCENTRATION                           
 SWT_Normal           5.2783E+00 4.3112E-01 4.4538E-02 1.9567E+00 2.8459E+00
 
  15.62% Completed


 DUMP OF INTERMEDIATE RESULTS IN SELECTED SEGMENTS
  TIME =   0D 15H  0M  0S .
 
 TOTAL MASS IN SYSTEM 5.2899E+04 4.0843E+03 4.2194E+02 1.9729E+04 2.8663E+04
 CHANGES BY PROCESSES 0.0000E+00 0.0000E+00 0.0000E+00 0.0000E+00 0.0000E+00
 CHANGES BY LOADS     0.0000E+00 0.0000E+00 0.0000E+00 0.0000E+00 0.0000E+00
 BOUNDARY INFLOWS     9.3740E+03 0.0000E+00 3.2540E+03 2.5200E+03 3.6000E+03
 BOUNDARY OUTFLOWS    6.4800E+03 0.0000E+00 3.2540E+03 1.3283E+03 1.8976E+03
                      Check      Initial    Internal   Lateral in Boundary F 
                                                       flow       low        
 CONCENTRATION                           
 SWT_Normal           5.5838E+00 4.3112E-01 4.4538E-02 2.0825E+00 3.0256E+00
 
1
                                             Fraction calculation Sobek-WQ           
                                                                                     
                                                                                     
                                             T0: 2012.01.01 00:00:00  (scu=       1s)
  16.67% Completed


 DUMP OF INTERMEDIATE RESULTS IN SELECTED SEGMENTS
  TIME =   0D 16H  0M  0S .
 
 TOTAL MASS IN SYSTEM 5.5793E+04 4.0843E+03 4.2194E+02 2.0921E+04 3.0366E+04
 CHANGES BY PROCESSES 0.0000E+00 0.0000E+00 0.0000E+00 0.0000E+00 0.0000E+00
 CHANGES BY LOADS     0.0000E+00 0.0000E+00 0.0000E+00 0.0000E+00 0.0000E+00
 BOUNDARY INFLOWS     9.3740E+03 0.0000E+00 3.2540E+03 2.5200E+03 3.6000E+03
 BOUNDARY OUTFLOWS    6.4800E+03 0.0000E+00 3.2540E+03 1.3283E+03 1.8976E+03
                      Check      Initial    Internal   Lateral in Boundary F 
                                                       flow       low        
 CONCENTRATION                           
 SWT_Normal           5.8893E+00 4.3112E-01 4.4538E-02 2.2083E+00 3.2053E+00
 
  17.71% Completed


 DUMP OF INTERMEDIATE RESULTS IN SELECTED SEGMENTS
  TIME =   0D 17H  0M  0S .
 
 TOTAL MASS IN SYSTEM 5.8687E+04 4.0843E+03 4.2194E+02 2.2112E+04 3.2068E+04
 CHANGES BY PROCESSES 0.0000E+00 0.0000E+00 0.0000E+00 0.0000E+00 0.0000E+00
 CHANGES BY LOADS     0.0000E+00 0.0000E+00 0.0000E+00 0.0000E+00 0.0000E+00
 BOUNDARY INFLOWS     9.3740E+03 0.0000E+00 3.2540E+03 2.5200E+03 3.6000E+03
 BOUNDARY OUTFLOWS    6.4800E+03 0.0000E+00 3.2540E+03 1.3283E+03 1.8976E+03
                      Check      Initial    Internal   Lateral in Boundary F 
                                                       flow       low        
 CONCENTRATION                           
 SWT_Normal           6.1947E+00 4.3112E-01 4.4538E-02 2.3341E+00 3.3850E+00
 
  18.75% Completed


 DUMP OF INTERMEDIATE RESULTS IN SELECTED SEGMENTS
  TIME =   0D 18H  0M  0S .
 
 TOTAL MASS IN SYSTEM 6.1581E+04 4.0843E+03 4.2194E+02 2.3304E+04 3.3770E+04
 CHANGES BY PROCESSES 0.0000E+00 0.0000E+00 0.0000E+00 0.0000E+00 0.0000E+00
 CHANGES BY LOADS     0.0000E+00 0.0000E+00 0.0000E+00 0.0000E+00 0.0000E+00
 BOUNDARY INFLOWS     9.3740E+03 0.0000E+00 3.2540E+03 2.5200E+03 3.6000E+03
 BOUNDARY OUTFLOWS    6.4800E+03 0.0000E+00 3.2540E+03 1.3283E+03 1.8976E+03
                      Check      Initial    Internal   Lateral in Boundary F 
                                                       flow       low        
 CONCENTRATION                           
 SWT_Normal           6.5002E+00 4.3112E-01 4.4538E-02 2.4599E+00 3.5647E+00
 
  19.79% Completed


 DUMP OF INTERMEDIATE RESULTS IN SELECTED SEGMENTS
  TIME =   0D 19H  0M  0S .
 
 TOTAL MASS IN SYSTEM 6.4475E+04 4.0843E+03 4.2194E+02 2.4496E+04 3.5473E+04
 CHANGES BY PROCESSES 0.0000E+00 0.0000E+00 0.0000E+00 0.0000E+00 0.0000E+00
 CHANGES BY LOADS     0.0000E+00 0.0000E+00 0.0000E+00 0.0000E+00 0.0000E+00
 BOUNDARY INFLOWS     9.3740E+03 0.0000E+00 3.2540E+03 2.5200E+03 3.6000E+03
 BOUNDARY OUTFLOWS    6.4800E+03 0.0000E+00 3.2540E+03 1.3283E+03 1.8976E+03
                      Check      Initial    Internal   Lateral in Boundary F 
                                                       flow       low        
 CONCENTRATION                           
 SWT_Normal           6.8057E+00 4.3112E-01 4.4538E-02 2.5857E+00 3.7444E+00
 
1
                                             Fraction calculation Sobek-WQ           
                                                                                     
                                                                                     
                                             T0: 2012.01.01 00:00:00  (scu=       1s)
  20.83% Completed


 DUMP OF INTERMEDIATE RESULTS IN SELECTED SEGMENTS
  TIME =   0D 20H  0M  0S .
 
 TOTAL MASS IN SYSTEM 6.7369E+04 4.0843E+03 4.2194E+02 2.5687E+04 3.7175E+04
 CHANGES BY PROCESSES 0.0000E+00 0.0000E+00 0.0000E+00 0.0000E+00 0.0000E+00
 CHANGES BY LOADS     0.0000E+00 0.0000E+00 0.0000E+00 0.0000E+00 0.0000E+00
 BOUNDARY INFLOWS     9.3740E+03 0.0000E+00 3.2540E+03 2.5200E+03 3.6000E+03
 BOUNDARY OUTFLOWS    6.4800E+03 0.0000E+00 3.2540E+03 1.3283E+03 1.8976E+03
                      Check      Initial    Internal   Lateral in Boundary F 
                                                       flow       low        
 CONCENTRATION                           
 SWT_Normal           7.1112E+00 4.3112E-01 4.4538E-02 2.7115E+00 3.9241E+00
 
  21.88% Completed


 DUMP OF INTERMEDIATE RESULTS IN SELECTED SEGMENTS
  TIME =   0D 21H  0M  0S .
 
 TOTAL MASS IN SYSTEM 7.0263E+04 4.0843E+03 4.2194E+02 2.6879E+04 3.8878E+04
 CHANGES BY PROCESSES 0.0000E+00 0.0000E+00 0.0000E+00 0.0000E+00 0.0000E+00
 CHANGES BY LOADS     0.0000E+00 0.0000E+00 0.0000E+00 0.0000E+00 0.0000E+00
 BOUNDARY INFLOWS     9.3740E+03 0.0000E+00 3.2540E+03 2.5200E+03 3.6000E+03
 BOUNDARY OUTFLOWS    6.4800E+03 0.0000E+00 3.2540E+03 1.3283E+03 1.8976E+03
                      Check      Initial    Internal   Lateral in Boundary F 
                                                       flow       low        
 CONCENTRATION                           
 SWT_Normal           7.4167E+00 4.3112E-01 4.4538E-02 2.8372E+00 4.1038E+00
 
  22.92% Completed


 DUMP OF INTERMEDIATE RESULTS IN SELECTED SEGMENTS
  TIME =   0D 22H  0M  0S .
 
 TOTAL MASS IN SYSTEM 7.3157E+04 4.0843E+03 4.2194E+02 2.8071E+04 4.0580E+04
 CHANGES BY PROCESSES 0.0000E+00 0.0000E+00 0.0000E+00 0.0000E+00 0.0000E+00
 CHANGES BY LOADS     0.0000E+00 0.0000E+00 0.0000E+00 0.0000E+00 0.0000E+00
 BOUNDARY INFLOWS     9.3740E+03 0.0000E+00 3.2540E+03 2.5200E+03 3.6000E+03
 BOUNDARY OUTFLOWS    6.4800E+03 0.0000E+00 3.2540E+03 1.3283E+03 1.8976E+03
                      Check      Initial    Internal   Lateral in Boundary F 
                                                       flow       low        
 CONCENTRATION                           
 SWT_Normal           7.7221E+00 4.3112E-01 4.4538E-02 2.9630E+00 4.2834E+00
 
  23.96% Completed


 DUMP OF INTERMEDIATE RESULTS IN SELECTED SEGMENTS
  TIME =   0D 23H  0M  0S .
 
 TOTAL MASS IN SYSTEM 7.6051E+04 4.0843E+03 4.2194E+02 2.9262E+04 4.2282E+04
 CHANGES BY PROCESSES 0.0000E+00 0.0000E+00 0.0000E+00 0.0000E+00 0.0000E+00
 CHANGES BY LOADS     0.0000E+00 0.0000E+00 0.0000E+00 0.0000E+00 0.0000E+00
 BOUNDARY INFLOWS     9.3740E+03 0.0000E+00 3.2540E+03 2.5200E+03 3.6000E+03
 BOUNDARY OUTFLOWS    6.4800E+03 0.0000E+00 3.2540E+03 1.3283E+03 1.8976E+03
                      Check      Initial    Internal   Lateral in Boundary F 
                                                       flow       low        
 CONCENTRATION                           
 SWT_Normal           8.0276E+00 4.3112E-01 4.4538E-02 3.0888E+00 4.4631E+00
 
1
                                             Fraction calculation Sobek-WQ           
                                                                                     
                                                                                     
                                             T0: 2012.01.01 00:00:00  (scu=       1s)
  25.00% Completed


 DUMP OF INTERMEDIATE RESULTS IN SELECTED SEGMENTS
  TIME =   1D  0H  0M  0S .
 
 TOTAL MASS IN SYSTEM 7.8945E+04 4.0843E+03 4.2194E+02 3.0454E+04 4.3985E+04
 CHANGES BY PROCESSES 0.0000E+00 0.0000E+00 0.0000E+00 0.0000E+00 0.0000E+00
 CHANGES BY LOADS     0.0000E+00 0.0000E+00 0.0000E+00 0.0000E+00 0.0000E+00
 BOUNDARY INFLOWS     9.3740E+03 0.0000E+00 3.2540E+03 2.5200E+03 3.6000E+03
 BOUNDARY OUTFLOWS    6.4800E+03 0.0000E+00 3.2540E+03 1.3283E+03 1.8976E+03
                      Check      Initial    Internal   Lateral in Boundary F 
                                                       flow       low        
 CONCENTRATION                           
 SWT_Normal           8.3331E+00 4.3112E-01 4.4538E-02 3.2146E+00 4.6428E+00
 
  26.04% Completed


 DUMP OF INTERMEDIATE RESULTS IN SELECTED SEGMENTS
  TIME =   1D  1H  0M  0S .
 
 TOTAL MASS IN SYSTEM 8.1839E+04 4.0843E+03 4.2194E+02 3.1646E+04 4.5687E+04
 CHANGES BY PROCESSES 0.0000E+00 0.0000E+00 0.0000E+00 0.0000E+00 0.0000E+00
 CHANGES BY LOADS     0.0000E+00 0.0000E+00 0.0000E+00 0.0000E+00 0.0000E+00
 BOUNDARY INFLOWS     9.3740E+03 0.0000E+00 3.2540E+03 2.5200E+03 3.6000E+03
 BOUNDARY OUTFLOWS    6.4800E+03 0.0000E+00 3.2540E+03 1.3283E+03 1.8976E+03
                      Check      Initial    Internal   Lateral in Boundary F 
                                                       flow       low        
 CONCENTRATION                           
 SWT_Normal           8.6386E+00 4.3112E-01 4.4538E-02 3.3404E+00 4.8225E+00
 
  27.08% Completed


 DUMP OF INTERMEDIATE RESULTS IN SELECTED SEGMENTS
  TIME =   1D  2H  0M  0S .
 
 TOTAL MASS IN SYSTEM 8.4733E+04 4.0843E+03 4.2194E+02 3.2837E+04 4.7389E+04
 CHANGES BY PROCESSES 0.0000E+00 0.0000E+00 0.0000E+00 0.0000E+00 0.0000E+00
 CHANGES BY LOADS     0.0000E+00 0.0000E+00 0.0000E+00 0.0000E+00 0.0000E+00
 BOUNDARY INFLOWS     9.3740E+03 0.0000E+00 3.2540E+03 2.5200E+03 3.6000E+03
 BOUNDARY OUTFLOWS    6.4800E+03 0.0000E+00 3.2540E+03 1.3283E+03 1.8976E+03
                      Check      Initial    Internal   Lateral in Boundary F 
                                                       flow       low        
 CONCENTRATION                           
 SWT_Normal           8.9441E+00 4.3112E-01 4.4538E-02 3.4662E+00 5.0022E+00
 
  28.12% Completed


 DUMP OF INTERMEDIATE RESULTS IN SELECTED SEGMENTS
  TIME =   1D  3H  0M  0S .
 
 TOTAL MASS IN SYSTEM 8.7627E+04 4.0843E+03 4.2194E+02 3.4029E+04 4.9092E+04
 CHANGES BY PROCESSES 0.0000E+00 0.0000E+00 0.0000E+00 0.0000E+00 0.0000E+00
 CHANGES BY LOADS     0.0000E+00 0.0000E+00 0.0000E+00 0.0000E+00 0.0000E+00
 BOUNDARY INFLOWS     9.3740E+03 0.0000E+00 3.2540E+03 2.5200E+03 3.6000E+03
 BOUNDARY OUTFLOWS    6.4800E+03 0.0000E+00 3.2540E+03 1.3283E+03 1.8976E+03
                      Check      Initial    Internal   Lateral in Boundary F 
                                                       flow       low        
 CONCENTRATION                           
 SWT_Normal           9.2496E+00 4.3112E-01 4.4538E-02 3.5920E+00 5.1819E+00
 
1
                                             Fraction calculation Sobek-WQ           
                                                                                     
                                                                                     
                                             T0: 2012.01.01 00:00:00  (scu=       1s)
  29.17% Completed


 DUMP OF INTERMEDIATE RESULTS IN SELECTED SEGMENTS
  TIME =   1D  4H  0M  0S .
 
 TOTAL MASS IN SYSTEM 9.0521E+04 4.0843E+03 4.2194E+02 3.5221E+04 5.0794E+04
 CHANGES BY PROCESSES 0.0000E+00 0.0000E+00 0.0000E+00 0.0000E+00 0.0000E+00
 CHANGES BY LOADS     0.0000E+00 0.0000E+00 0.0000E+00 0.0000E+00 0.0000E+00
 BOUNDARY INFLOWS     9.3740E+03 0.0000E+00 3.2540E+03 2.5200E+03 3.6000E+03
 BOUNDARY OUTFLOWS    6.4800E+03 0.0000E+00 3.2540E+03 1.3283E+03 1.8976E+03
                      Check      Initial    Internal   Lateral in Boundary F 
                                                       flow       low        
 CONCENTRATION                           
 SWT_Normal           9.5550E+00 4.3112E-01 4.4538E-02 3.7178E+00 5.3616E+00
 
  30.21% Completed


 DUMP OF INTERMEDIATE RESULTS IN SELECTED SEGMENTS
  TIME =   1D  5H  0M  0S .
 
 TOTAL MASS IN SYSTEM 9.3415E+04 4.0843E+03 4.2194E+02 3.6412E+04 5.2497E+04
 CHANGES BY PROCESSES 0.0000E+00 0.0000E+00 0.0000E+00 0.0000E+00 0.0000E+00
 CHANGES BY LOADS     0.0000E+00 0.0000E+00 0.0000E+00 0.0000E+00 0.0000E+00
 BOUNDARY INFLOWS     9.3740E+03 0.0000E+00 3.2540E+03 2.5200E+03 3.6000E+03
 BOUNDARY OUTFLOWS    6.4800E+03 0.0000E+00 3.2540E+03 1.3283E+03 1.8976E+03
                      Check      Initial    Internal   Lateral in Boundary F 
                                                       flow       low        
 CONCENTRATION                           
 SWT_Normal           9.8605E+00 4.3112E-01 4.4538E-02 3.8435E+00 5.5413E+00
 
  31.25% Completed


 DUMP OF INTERMEDIATE RESULTS IN SELECTED SEGMENTS
  TIME =   1D  6H  0M  0S .
 
 TOTAL MASS IN SYSTEM 9.6309E+04 4.0843E+03 4.2194E+02 3.7604E+04 5.4199E+04
 CHANGES BY PROCESSES 0.0000E+00 0.0000E+00 0.0000E+00 0.0000E+00 0.0000E+00
 CHANGES BY LOADS     0.0000E+00 0.0000E+00 0.0000E+00 0.0000E+00 0.0000E+00
 BOUNDARY INFLOWS     9.3740E+03 0.0000E+00 3.2540E+03 2.5200E+03 3.6000E+03
 BOUNDARY OUTFLOWS    6.4800E+03 0.0000E+00 3.2540E+03 1.3283E+03 1.8976E+03
                      Check      Initial    Internal   Lateral in Boundary F 
                                                       flow       low        
 CONCENTRATION                           
 SWT_Normal           1.0166E+01 4.3112E-01 4.4538E-02 3.9693E+00 5.7210E+00
 
  32.29% Completed


 DUMP OF INTERMEDIATE RESULTS IN SELECTED SEGMENTS
  TIME =   1D  7H  0M  0S .
 
 TOTAL MASS IN SYSTEM 9.9203E+04 4.0843E+03 4.2194E+02 3.8796E+04 5.5901E+04
 CHANGES BY PROCESSES 0.0000E+00 0.0000E+00 0.0000E+00 0.0000E+00 0.0000E+00
 CHANGES BY LOADS     0.0000E+00 0.0000E+00 0.0000E+00 0.0000E+00 0.0000E+00
 BOUNDARY INFLOWS     9.3740E+03 0.0000E+00 3.2540E+03 2.5200E+03 3.6000E+03
 BOUNDARY OUTFLOWS    6.4800E+03 0.0000E+00 3.2540E+03 1.3283E+03 1.8976E+03
                      Check      Initial    Internal   Lateral in Boundary F 
                                                       flow       low        
 CONCENTRATION                           
 SWT_Normal           1.0471E+01 4.3112E-01 4.4538E-02 4.0951E+00 5.9007E+00
 
1
                                             Fraction calculation Sobek-WQ           
                                                                                     
                                                                                     
                                             T0: 2012.01.01 00:00:00  (scu=       1s)
  33.33% Completed


 DUMP OF INTERMEDIATE RESULTS IN SELECTED SEGMENTS
  TIME =   1D  8H  0M  0S .
 
 TOTAL MASS IN SYSTEM 1.0210E+05 4.0843E+03 4.2194E+02 3.9987E+04 5.7604E+04
 CHANGES BY PROCESSES 0.0000E+00 0.0000E+00 0.0000E+00 0.0000E+00 0.0000E+00
 CHANGES BY LOADS     0.0000E+00 0.0000E+00 0.0000E+00 0.0000E+00 0.0000E+00
 BOUNDARY INFLOWS     9.3740E+03 0.0000E+00 3.2540E+03 2.5200E+03 3.6000E+03
 BOUNDARY OUTFLOWS    6.4800E+03 0.0000E+00 3.2540E+03 1.3283E+03 1.8976E+03
                      Check      Initial    Internal   Lateral in Boundary F 
                                                       flow       low        
 CONCENTRATION                           
 SWT_Normal           1.0777E+01 4.3112E-01 4.4538E-02 4.2209E+00 6.0804E+00
 
  34.38% Completed


 DUMP OF INTERMEDIATE RESULTS IN SELECTED SEGMENTS
  TIME =   1D  9H  0M  0S .
 
 TOTAL MASS IN SYSTEM 1.0499E+05 4.0843E+03 4.2194E+02 4.1179E+04 5.9306E+04
 CHANGES BY PROCESSES 0.0000E+00 0.0000E+00 0.0000E+00 0.0000E+00 0.0000E+00
 CHANGES BY LOADS     0.0000E+00 0.0000E+00 0.0000E+00 0.0000E+00 0.0000E+00
 BOUNDARY INFLOWS     9.3740E+03 0.0000E+00 3.2540E+03 2.5200E+03 3.6000E+03
 BOUNDARY OUTFLOWS    6.4800E+03 0.0000E+00 3.2540E+03 1.3283E+03 1.8976E+03
                      Check      Initial    Internal   Lateral in Boundary F 
                                                       flow       low        
 CONCENTRATION                           
 SWT_Normal           1.1082E+01 4.3112E-01 4.4538E-02 4.3467E+00 6.2601E+00
 
  35.42% Completed


 DUMP OF INTERMEDIATE RESULTS IN SELECTED SEGMENTS
  TIME =   1D 10H  0M  0S .
 
 TOTAL MASS IN SYSTEM 1.0789E+05 4.0843E+03 4.2194E+02 4.2371E+04 6.1008E+04
 CHANGES BY PROCESSES 0.0000E+00 0.0000E+00 0.0000E+00 0.0000E+00 0.0000E+00
 CHANGES BY LOADS     0.0000E+00 0.0000E+00 0.0000E+00 0.0000E+00 0.0000E+00
 BOUNDARY INFLOWS     9.3740E+03 0.0000E+00 3.2540E+03 2.5200E+03 3.6000E+03
 BOUNDARY OUTFLOWS    6.4800E+03 0.0000E+00 3.2540E+03 1.3283E+03 1.8976E+03
                      Check      Initial    Internal   Lateral in Boundary F 
                                                       flow       low        
 CONCENTRATION                           
 SWT_Normal           1.1388E+01 4.3112E-01 4.4538E-02 4.4725E+00 6.4398E+00
 
  36.46% Completed


 DUMP OF INTERMEDIATE RESULTS IN SELECTED SEGMENTS
  TIME =   1D 11H  0M  0S .
 
 TOTAL MASS IN SYSTEM 1.1078E+05 4.0843E+03 4.2194E+02 4.3562E+04 6.2711E+04
 CHANGES BY PROCESSES 0.0000E+00 0.0000E+00 0.0000E+00 0.0000E+00 0.0000E+00
 CHANGES BY LOADS     0.0000E+00 0.0000E+00 0.0000E+00 0.0000E+00 0.0000E+00
 BOUNDARY INFLOWS     9.3740E+03 0.0000E+00 3.2540E+03 2.5200E+03 3.6000E+03
 BOUNDARY OUTFLOWS    6.4800E+03 0.0000E+00 3.2540E+03 1.3283E+03 1.8976E+03
                      Check      Initial    Internal   Lateral in Boundary F 
                                                       flow       low        
 CONCENTRATION                           
 SWT_Normal           1.1693E+01 4.3112E-01 4.4538E-02 4.5983E+00 6.6195E+00
 
1
                                             Fraction calculation Sobek-WQ           
                                                                                     
                                                                                     
                                             T0: 2012.01.01 00:00:00  (scu=       1s)
  37.50% Completed


 DUMP OF INTERMEDIATE RESULTS IN SELECTED SEGMENTS
  TIME =   1D 12H  0M  0S .
 
 TOTAL MASS IN SYSTEM 1.1367E+05 4.0843E+03 4.2194E+02 4.4754E+04 6.4413E+04
 CHANGES BY PROCESSES 0.0000E+00 0.0000E+00 0.0000E+00 0.0000E+00 0.0000E+00
 CHANGES BY LOADS     0.0000E+00 0.0000E+00 0.0000E+00 0.0000E+00 0.0000E+00
 BOUNDARY INFLOWS     9.3740E+03 0.0000E+00 3.2540E+03 2.5200E+03 3.6000E+03
 BOUNDARY OUTFLOWS    6.4800E+03 0.0000E+00 3.2540E+03 1.3283E+03 1.8976E+03
                      Check      Initial    Internal   Lateral in Boundary F 
                                                       flow       low        
 CONCENTRATION                           
 SWT_Normal           1.1999E+01 4.3112E-01 4.4538E-02 4.7240E+00 6.7992E+00
 
  38.54% Completed


 DUMP OF INTERMEDIATE RESULTS IN SELECTED SEGMENTS
  TIME =   1D 13H  0M  0S .
 
 TOTAL MASS IN SYSTEM 1.1657E+05 4.0843E+03 4.2194E+02 4.5946E+04 6.6115E+04
 CHANGES BY PROCESSES 0.0000E+00 0.0000E+00 0.0000E+00 0.0000E+00 0.0000E+00
 CHANGES BY LOADS     0.0000E+00 0.0000E+00 0.0000E+00 0.0000E+00 0.0000E+00
 BOUNDARY INFLOWS     9.3740E+03 0.0000E+00 3.2540E+03 2.5200E+03 3.6000E+03
 BOUNDARY OUTFLOWS    6.4800E+03 0.0000E+00 3.2540E+03 1.3283E+03 1.8976E+03
                      Check      Initial    Internal   Lateral in Boundary F 
                                                       flow       low        
 CONCENTRATION                           
 SWT_Normal           1.2304E+01 4.3112E-01 4.4538E-02 4.8498E+00 6.9789E+00
 
  39.58% Completed


 DUMP OF INTERMEDIATE RESULTS IN SELECTED SEGMENTS
  TIME =   1D 14H  0M  0S .
 
 TOTAL MASS IN SYSTEM 1.1946E+05 4.0843E+03 4.2194E+02 4.7137E+04 6.7818E+04
 CHANGES BY PROCESSES 0.0000E+00 0.0000E+00 0.0000E+00 0.0000E+00 0.0000E+00
 CHANGES BY LOADS     0.0000E+00 0.0000E+00 0.0000E+00 0.0000E+00 0.0000E+00
 BOUNDARY INFLOWS     9.3740E+03 0.0000E+00 3.2540E+03 2.5200E+03 3.6000E+03
 BOUNDARY OUTFLOWS    6.4800E+03 0.0000E+00 3.2540E+03 1.3283E+03 1.8976E+03
                      Check      Initial    Internal   Lateral in Boundary F 
                                                       flow       low        
 CONCENTRATION                           
 SWT_Normal           1.2610E+01 4.3112E-01 4.4538E-02 4.9756E+00 7.1586E+00
 
  40.62% Completed


 DUMP OF INTERMEDIATE RESULTS IN SELECTED SEGMENTS
  TIME =   1D 15H  0M  0S .
 
 TOTAL MASS IN SYSTEM 1.2236E+05 4.0843E+03 4.2194E+02 4.8329E+04 6.9520E+04
 CHANGES BY PROCESSES 0.0000E+00 0.0000E+00 0.0000E+00 0.0000E+00 0.0000E+00
 CHANGES BY LOADS     0.0000E+00 0.0000E+00 0.0000E+00 0.0000E+00 0.0000E+00
 BOUNDARY INFLOWS     9.3740E+03 0.0000E+00 3.2540E+03 2.5200E+03 3.6000E+03
 BOUNDARY OUTFLOWS    6.4800E+03 0.0000E+00 3.2540E+03 1.3283E+03 1.8976E+03
                      Check      Initial    Internal   Lateral in Boundary F 
                                                       flow       low        
 CONCENTRATION                           
 SWT_Normal           1.2915E+01 4.3112E-01 4.4538E-02 5.1014E+00 7.3383E+00
 
1
                                             Fraction calculation Sobek-WQ           
                                                                                     
                                                                                     
                                             T0: 2012.01.01 00:00:00  (scu=       1s)
  41.67% Completed


 DUMP OF INTERMEDIATE RESULTS IN SELECTED SEGMENTS
  TIME =   1D 16H  0M  0S .
 
 TOTAL MASS IN SYSTEM 1.2525E+05 4.0843E+03 4.2194E+02 4.9521E+04 7.1223E+04
 CHANGES BY PROCESSES 0.0000E+00 0.0000E+00 0.0000E+00 0.0000E+00 0.0000E+00
 CHANGES BY LOADS     0.0000E+00 0.0000E+00 0.0000E+00 0.0000E+00 0.0000E+00
 BOUNDARY INFLOWS     9.3740E+03 0.0000E+00 3.2540E+03 2.5200E+03 3.6000E+03
 BOUNDARY OUTFLOWS    6.4800E+03 0.0000E+00 3.2540E+03 1.3283E+03 1.8976E+03
                      Check      Initial    Internal   Lateral in Boundary F 
                                                       flow       low        
 CONCENTRATION                           
 SWT_Normal           1.3221E+01 4.3112E-01 4.4538E-02 5.2272E+00 7.5180E+00
 
  42.71% Completed


 DUMP OF INTERMEDIATE RESULTS IN SELECTED SEGMENTS
  TIME =   1D 17H  0M  0S .
 
 TOTAL MASS IN SYSTEM 1.2814E+05 4.0843E+03 4.2194E+02 5.0712E+04 7.2925E+04
 CHANGES BY PROCESSES 0.0000E+00 0.0000E+00 0.0000E+00 0.0000E+00 0.0000E+00
 CHANGES BY LOADS     0.0000E+00 0.0000E+00 0.0000E+00 0.0000E+00 0.0000E+00
 BOUNDARY INFLOWS     9.3740E+03 0.0000E+00 3.2540E+03 2.5200E+03 3.6000E+03
 BOUNDARY OUTFLOWS    6.4800E+03 0.0000E+00 3.2540E+03 1.3283E+03 1.8976E+03
                      Check      Initial    Internal   Lateral in Boundary F 
                                                       flow       low        
 CONCENTRATION                           
 SWT_Normal           1.3526E+01 4.3112E-01 4.4538E-02 5.3530E+00 7.6977E+00
 
  43.75% Completed


 DUMP OF INTERMEDIATE RESULTS IN SELECTED SEGMENTS
  TIME =   1D 18H  0M  0S .
 
 TOTAL MASS IN SYSTEM 1.3104E+05 4.0843E+03 4.2194E+02 5.1904E+04 7.4627E+04
 CHANGES BY PROCESSES 0.0000E+00 0.0000E+00 0.0000E+00 0.0000E+00 0.0000E+00
 CHANGES BY LOADS     0.0000E+00 0.0000E+00 0.0000E+00 0.0000E+00 0.0000E+00
 BOUNDARY INFLOWS     9.3740E+03 0.0000E+00 3.2540E+03 2.5200E+03 3.6000E+03
 BOUNDARY OUTFLOWS    6.4800E+03 0.0000E+00 3.2540E+03 1.3283E+03 1.8976E+03
                      Check      Initial    Internal   Lateral in Boundary F 
                                                       flow       low        
 CONCENTRATION                           
 SWT_Normal           1.3832E+01 4.3112E-01 4.4538E-02 5.4788E+00 7.8774E+00
 
  44.79% Completed


 DUMP OF INTERMEDIATE RESULTS IN SELECTED SEGMENTS
  TIME =   1D 19H  0M  0S .
 
 TOTAL MASS IN SYSTEM 1.3393E+05 4.0843E+03 4.2194E+02 5.3096E+04 7.6330E+04
 CHANGES BY PROCESSES 0.0000E+00 0.0000E+00 0.0000E+00 0.0000E+00 0.0000E+00
 CHANGES BY LOADS     0.0000E+00 0.0000E+00 0.0000E+00 0.0000E+00 0.0000E+00
 BOUNDARY INFLOWS     9.3740E+03 0.0000E+00 3.2540E+03 2.5200E+03 3.6000E+03
 BOUNDARY OUTFLOWS    6.4800E+03 0.0000E+00 3.2540E+03 1.3283E+03 1.8976E+03
                      Check      Initial    Internal   Lateral in Boundary F 
                                                       flow       low        
 CONCENTRATION                           
 SWT_Normal           1.4137E+01 4.3112E-01 4.4538E-02 5.6046E+00 8.0570E+00
 
1
                                             Fraction calculation Sobek-WQ           
                                                                                     
                                                                                     
                                             T0: 2012.01.01 00:00:00  (scu=       1s)
  45.83% Completed


 DUMP OF INTERMEDIATE RESULTS IN SELECTED SEGMENTS
  TIME =   1D 20H  0M  0S .
 
 TOTAL MASS IN SYSTEM 1.3683E+05 4.0843E+03 4.2194E+02 5.4287E+04 7.8032E+04
 CHANGES BY PROCESSES 0.0000E+00 0.0000E+00 0.0000E+00 0.0000E+00 0.0000E+00
 CHANGES BY LOADS     0.0000E+00 0.0000E+00 0.0000E+00 0.0000E+00 0.0000E+00
 BOUNDARY INFLOWS     9.3740E+03 0.0000E+00 3.2540E+03 2.5200E+03 3.6000E+03
 BOUNDARY OUTFLOWS    6.4800E+03 0.0000E+00 3.2540E+03 1.3283E+03 1.8976E+03
                      Check      Initial    Internal   Lateral in Boundary F 
                                                       flow       low        
 CONCENTRATION                           
 SWT_Normal           1.4443E+01 4.3112E-01 4.4538E-02 5.7303E+00 8.2367E+00
 
  46.88% Completed


 DUMP OF INTERMEDIATE RESULTS IN SELECTED SEGMENTS
  TIME =   1D 21H  0M  0S .
 
 TOTAL MASS IN SYSTEM 1.3972E+05 4.0843E+03 4.2194E+02 5.5479E+04 7.9734E+04
 CHANGES BY PROCESSES 0.0000E+00 0.0000E+00 0.0000E+00 0.0000E+00 0.0000E+00
 CHANGES BY LOADS     0.0000E+00 0.0000E+00 0.0000E+00 0.0000E+00 0.0000E+00
 BOUNDARY INFLOWS     9.3740E+03 0.0000E+00 3.2540E+03 2.5200E+03 3.6000E+03
 BOUNDARY OUTFLOWS    6.4800E+03 0.0000E+00 3.2540E+03 1.3283E+03 1.8976E+03
                      Check      Initial    Internal   Lateral in Boundary F 
                                                       flow       low        
 CONCENTRATION                           
 SWT_Normal           1.4748E+01 4.3112E-01 4.4538E-02 5.8561E+00 8.4164E+00
 
  47.92% Completed


 DUMP OF INTERMEDIATE RESULTS IN SELECTED SEGMENTS
  TIME =   1D 22H  0M  0S .
 
 TOTAL MASS IN SYSTEM 1.4261E+05 4.0843E+03 4.2194E+02 5.6671E+04 8.1437E+04
 CHANGES BY PROCESSES 0.0000E+00 0.0000E+00 0.0000E+00 0.0000E+00 0.0000E+00
 CHANGES BY LOADS     0.0000E+00 0.0000E+00 0.0000E+00 0.0000E+00 0.0000E+00
 BOUNDARY INFLOWS     9.3740E+03 0.0000E+00 3.2540E+03 2.5200E+03 3.6000E+03
 BOUNDARY OUTFLOWS    6.4800E+03 0.0000E+00 3.2540E+03 1.3283E+03 1.8976E+03
                      Check      Initial    Internal   Lateral in Boundary F 
                                                       flow       low        
 CONCENTRATION                           
 SWT_Normal           1.5054E+01 4.3112E-01 4.4538E-02 5.9819E+00 8.5961E+00
 
  48.96% Completed


 DUMP OF INTERMEDIATE RESULTS IN SELECTED SEGMENTS
  TIME =   1D 23H  0M  0S .
 
 TOTAL MASS IN SYSTEM 1.4551E+05 4.0843E+03 4.2194E+02 5.7862E+04 8.3139E+04
 CHANGES BY PROCESSES 0.0000E+00 0.0000E+00 0.0000E+00 0.0000E+00 0.0000E+00
 CHANGES BY LOADS     0.0000E+00 0.0000E+00 0.0000E+00 0.0000E+00 0.0000E+00
 BOUNDARY INFLOWS     9.3740E+03 0.0000E+00 3.2540E+03 2.5200E+03 3.6000E+03
 BOUNDARY OUTFLOWS    6.4800E+03 0.0000E+00 3.2540E+03 1.3283E+03 1.8976E+03
                      Check      Initial    Internal   Lateral in Boundary F 
                                                       flow       low        
 CONCENTRATION                           
 SWT_Normal           1.5359E+01 4.3112E-01 4.4538E-02 6.1077E+00 8.7758E+00
 
1
                                             Fraction calculation Sobek-WQ           
                                                                                     
                                                                                     
                                             T0: 2012.01.01 00:00:00  (scu=       1s)
  50.00% Completed


 DUMP OF INTERMEDIATE RESULTS IN SELECTED SEGMENTS
  TIME =   2D  0H  0M  0S .
 
 TOTAL MASS IN SYSTEM 1.4840E+05 4.0843E+03 4.2194E+02 5.9054E+04 8.4841E+04
 CHANGES BY PROCESSES 0.0000E+00 0.0000E+00 0.0000E+00 0.0000E+00 0.0000E+00
 CHANGES BY LOADS     0.0000E+00 0.0000E+00 0.0000E+00 0.0000E+00 0.0000E+00
 BOUNDARY INFLOWS     9.3740E+03 0.0000E+00 3.2540E+03 2.5200E+03 3.6000E+03
 BOUNDARY OUTFLOWS    6.4800E+03 0.0000E+00 3.2540E+03 1.3283E+03 1.8976E+03
                      Check      Initial    Internal   Lateral in Boundary F 
                                                       flow       low        
 CONCENTRATION                           
 SWT_Normal           1.5665E+01 4.3112E-01 4.4538E-02 6.2335E+00 8.9555E+00
 
  51.04% Completed


 DUMP OF INTERMEDIATE RESULTS IN SELECTED SEGMENTS
  TIME =   2D  1H  0M  0S .
 
 TOTAL MASS IN SYSTEM 1.5130E+05 4.0843E+03 4.2194E+02 6.0245E+04 8.6544E+04
 CHANGES BY PROCESSES 0.0000E+00 0.0000E+00 0.0000E+00 0.0000E+00 0.0000E+00
 CHANGES BY LOADS     0.0000E+00 0.0000E+00 0.0000E+00 0.0000E+00 0.0000E+00
 BOUNDARY INFLOWS     9.3740E+03 0.0000E+00 3.2540E+03 2.5200E+03 3.6000E+03
 BOUNDARY OUTFLOWS    6.4800E+03 0.0000E+00 3.2540E+03 1.3283E+03 1.8976E+03
                      Check      Initial    Internal   Lateral in Boundary F 
                                                       flow       low        
 CONCENTRATION                           
 SWT_Normal           1.5970E+01 4.3112E-01 4.4538E-02 6.3593E+00 9.1352E+00
 
  52.08% Completed


 DUMP OF INTERMEDIATE RESULTS IN SELECTED SEGMENTS
  TIME =   2D  2H  0M  0S .
 
 TOTAL MASS IN SYSTEM 1.5419E+05 4.0843E+03 4.2194E+02 6.1437E+04 8.8246E+04
 CHANGES BY PROCESSES 0.0000E+00 0.0000E+00 0.0000E+00 0.0000E+00 0.0000E+00
 CHANGES BY LOADS     0.0000E+00 0.0000E+00 0.0000E+00 0.0000E+00 0.0000E+00
 BOUNDARY INFLOWS     9.3740E+03 0.0000E+00 3.2540E+03 2.5200E+03 3.6000E+03
 BOUNDARY OUTFLOWS    6.4800E+03 0.0000E+00 3.2540E+03 1.3283E+03 1.8976E+03
                      Check      Initial    Internal   Lateral in Boundary F 
                                                       flow       low        
 CONCENTRATION                           
 SWT_Normal           1.6276E+01 4.3112E-01 4.4538E-02 6.4851E+00 9.3149E+00
 
  53.12% Completed


 DUMP OF INTERMEDIATE RESULTS IN SELECTED SEGMENTS
  TIME =   2D  3H  0M  0S .
 
 TOTAL MASS IN SYSTEM 1.5708E+05 4.0843E+03 4.2194E+02 6.2629E+04 8.9949E+04
 CHANGES BY PROCESSES 0.0000E+00 0.0000E+00 0.0000E+00 0.0000E+00 0.0000E+00
 CHANGES BY LOADS     0.0000E+00 0.0000E+00 0.0000E+00 0.0000E+00 0.0000E+00
 BOUNDARY INFLOWS     9.3740E+03 0.0000E+00 3.2540E+03 2.5200E+03 3.6000E+03
 BOUNDARY OUTFLOWS    6.4800E+03 0.0000E+00 3.2540E+03 1.3283E+03 1.8976E+03
                      Check      Initial    Internal   Lateral in Boundary F 
                                                       flow       low        
 CONCENTRATION                           
 SWT_Normal           1.6581E+01 4.3112E-01 4.4538E-02 6.6108E+00 9.4946E+00
 
1
                                             Fraction calculation Sobek-WQ           
                                                                                     
                                                                                     
                                             T0: 2012.01.01 00:00:00  (scu=       1s)
  54.17% Completed


 DUMP OF INTERMEDIATE RESULTS IN SELECTED SEGMENTS
  TIME =   2D  4H  0M  0S .
 
 TOTAL MASS IN SYSTEM 1.5998E+05 4.0843E+03 4.2194E+02 6.3820E+04 9.1651E+04
 CHANGES BY PROCESSES 0.0000E+00 0.0000E+00 0.0000E+00 0.0000E+00 0.0000E+00
 CHANGES BY LOADS     0.0000E+00 0.0000E+00 0.0000E+00 0.0000E+00 0.0000E+00
 BOUNDARY INFLOWS     9.3740E+03 0.0000E+00 3.2540E+03 2.5200E+03 3.6000E+03
 BOUNDARY OUTFLOWS    6.4800E+03 0.0000E+00 3.2540E+03 1.3283E+03 1.8976E+03
                      Check      Initial    Internal   Lateral in Boundary F 
                                                       flow       low        
 CONCENTRATION                           
 SWT_Normal           1.6887E+01 4.3112E-01 4.4538E-02 6.7366E+00 9.6743E+00
 
  55.21% Completed


 DUMP OF INTERMEDIATE RESULTS IN SELECTED SEGMENTS
  TIME =   2D  5H  0M  0S .
 
 TOTAL MASS IN SYSTEM 1.6287E+05 4.0843E+03 4.2194E+02 6.5012E+04 9.3353E+04
 CHANGES BY PROCESSES 0.0000E+00 0.0000E+00 0.0000E+00 0.0000E+00 0.0000E+00
 CHANGES BY LOADS     0.0000E+00 0.0000E+00 0.0000E+00 0.0000E+00 0.0000E+00
 BOUNDARY INFLOWS     9.3740E+03 0.0000E+00 3.2540E+03 2.5200E+03 3.6000E+03
 BOUNDARY OUTFLOWS    6.4800E+03 0.0000E+00 3.2540E+03 1.3283E+03 1.8976E+03
                      Check      Initial    Internal   Lateral in Boundary F 
                                                       flow       low        
 CONCENTRATION                           
 SWT_Normal           1.7192E+01 4.3112E-01 4.4538E-02 6.8624E+00 9.8540E+00
 
  56.25% Completed


 DUMP OF INTERMEDIATE RESULTS IN SELECTED SEGMENTS
  TIME =   2D  6H  0M  0S .
 
 TOTAL MASS IN SYSTEM 1.6577E+05 4.0843E+03 4.2194E+02 6.6204E+04 9.5056E+04
 CHANGES BY PROCESSES 0.0000E+00 0.0000E+00 0.0000E+00 0.0000E+00 0.0000E+00
 CHANGES BY LOADS     0.0000E+00 0.0000E+00 0.0000E+00 0.0000E+00 0.0000E+00
 BOUNDARY INFLOWS     9.3740E+03 0.0000E+00 3.2540E+03 2.5200E+03 3.6000E+03
 BOUNDARY OUTFLOWS    6.4800E+03 0.0000E+00 3.2540E+03 1.3283E+03 1.8976E+03
                      Check      Initial    Internal   Lateral in Boundary F 
                                                       flow       low        
 CONCENTRATION                           
 SWT_Normal           1.7498E+01 4.3112E-01 4.4538E-02 6.9882E+00 1.0034E+01
 
  57.29% Completed


 DUMP OF INTERMEDIATE RESULTS IN SELECTED SEGMENTS
  TIME =   2D  7H  0M  0S .
 
 TOTAL MASS IN SYSTEM 1.6866E+05 4.0843E+03 4.2194E+02 6.7395E+04 9.6758E+04
 CHANGES BY PROCESSES 0.0000E+00 0.0000E+00 0.0000E+00 0.0000E+00 0.0000E+00
 CHANGES BY LOADS     0.0000E+00 0.0000E+00 0.0000E+00 0.0000E+00 0.0000E+00
 BOUNDARY INFLOWS     9.3740E+03 0.0000E+00 3.2540E+03 2.5200E+03 3.6000E+03
 BOUNDARY OUTFLOWS    6.4800E+03 0.0000E+00 3.2540E+03 1.3283E+03 1.8976E+03
                      Check      Initial    Internal   Lateral in Boundary F 
                                                       flow       low        
 CONCENTRATION                           
 SWT_Normal           1.7803E+01 4.3112E-01 4.4538E-02 7.1140E+00 1.0213E+01
 
1
                                             Fraction calculation Sobek-WQ           
                                                                                     
                                                                                     
                                             T0: 2012.01.01 00:00:00  (scu=       1s)
  58.33% Completed


 DUMP OF INTERMEDIATE RESULTS IN SELECTED SEGMENTS
  TIME =   2D  8H  0M  0S .
 
 TOTAL MASS IN SYSTEM 1.7155E+05 4.0843E+03 4.2194E+02 6.8587E+04 9.8460E+04
 CHANGES BY PROCESSES 0.0000E+00 0.0000E+00 0.0000E+00 0.0000E+00 0.0000E+00
 CHANGES BY LOADS     0.0000E+00 0.0000E+00 0.0000E+00 0.0000E+00 0.0000E+00
 BOUNDARY INFLOWS     9.3740E+03 0.0000E+00 3.2540E+03 2.5200E+03 3.6000E+03
 BOUNDARY OUTFLOWS    6.4800E+03 0.0000E+00 3.2540E+03 1.3283E+03 1.8976E+03
                      Check      Initial    Internal   Lateral in Boundary F 
                                                       flow       low        
 CONCENTRATION                           
 SWT_Normal           1.8109E+01 4.3112E-01 4.4538E-02 7.2398E+00 1.0393E+01
 
  59.38% Completed


 DUMP OF INTERMEDIATE RESULTS IN SELECTED SEGMENTS
  TIME =   2D  9H  0M  0S .
 
 TOTAL MASS IN SYSTEM 1.7445E+05 4.0843E+03 4.2194E+02 6.9779E+04 1.0016E+05
 CHANGES BY PROCESSES 0.0000E+00 0.0000E+00 0.0000E+00 0.0000E+00 0.0000E+00
 CHANGES BY LOADS     0.0000E+00 0.0000E+00 0.0000E+00 0.0000E+00 0.0000E+00
 BOUNDARY INFLOWS     9.3740E+03 0.0000E+00 3.2540E+03 2.5200E+03 3.6000E+03
 BOUNDARY OUTFLOWS    6.4800E+03 0.0000E+00 3.2540E+03 1.3283E+03 1.8976E+03
                      Check      Initial    Internal   Lateral in Boundary F 
                                                       flow       low        
 CONCENTRATION                           
 SWT_Normal           1.8414E+01 4.3112E-01 4.4538E-02 7.3655E+00 1.0573E+01
 
  60.42% Completed


 DUMP OF INTERMEDIATE RESULTS IN SELECTED SEGMENTS
  TIME =   2D 10H  0M  0S .
 
 TOTAL MASS IN SYSTEM 1.7734E+05 4.0843E+03 4.2194E+02 7.0970E+04 1.0187E+05
 CHANGES BY PROCESSES 0.0000E+00 0.0000E+00 0.0000E+00 0.0000E+00 0.0000E+00
 CHANGES BY LOADS     0.0000E+00 0.0000E+00 0.0000E+00 0.0000E+00 0.0000E+00
 BOUNDARY INFLOWS     9.3740E+03 0.0000E+00 3.2540E+03 2.5200E+03 3.6000E+03
 BOUNDARY OUTFLOWS    6.4800E+03 0.0000E+00 3.2540E+03 1.3283E+03 1.8976E+03
                      Check      Initial    Internal   Lateral in Boundary F 
                                                       flow       low        
 CONCENTRATION                           
 SWT_Normal           1.8719E+01 4.3112E-01 4.4538E-02 7.4913E+00 1.0752E+01
 
  61.46% Completed


 DUMP OF INTERMEDIATE RESULTS IN SELECTED SEGMENTS
  TIME =   2D 11H  0M  0S .
 
 TOTAL MASS IN SYSTEM 1.8024E+05 4.0843E+03 4.2194E+02 7.2162E+04 1.0357E+05
 CHANGES BY PROCESSES 0.0000E+00 0.0000E+00 0.0000E+00 0.0000E+00 0.0000E+00
 CHANGES BY LOADS     0.0000E+00 0.0000E+00 0.0000E+00 0.0000E+00 0.0000E+00
 BOUNDARY INFLOWS     9.3740E+03 0.0000E+00 3.2540E+03 2.5200E+03 3.6000E+03
 BOUNDARY OUTFLOWS    6.4800E+03 0.0000E+00 3.2540E+03 1.3283E+03 1.8976E+03
                      Check      Initial    Internal   Lateral in Boundary F 
                                                       flow       low        
 CONCENTRATION                           
 SWT_Normal           1.9025E+01 4.3112E-01 4.4538E-02 7.6171E+00 1.0932E+01
 
1
                                             Fraction calculation Sobek-WQ           
                                                                                     
                                                                                     
                                             T0: 2012.01.01 00:00:00  (scu=       1s)
  62.50% Completed


 DUMP OF INTERMEDIATE RESULTS IN SELECTED SEGMENTS
  TIME =   2D 12H  0M  0S .
 
 TOTAL MASS IN SYSTEM 1.8313E+05 4.0843E+03 4.2194E+02 7.3353E+04 1.0527E+05
 CHANGES BY PROCESSES 0.0000E+00 0.0000E+00 0.0000E+00 0.0000E+00 0.0000E+00
 CHANGES BY LOADS     0.0000E+00 0.0000E+00 0.0000E+00 0.0000E+00 0.0000E+00
 BOUNDARY INFLOWS     9.3740E+03 0.0000E+00 3.2540E+03 2.5200E+03 3.6000E+03
 BOUNDARY OUTFLOWS    6.4800E+03 0.0000E+00 3.2540E+03 1.3283E+03 1.8976E+03
                      Check      Initial    Internal   Lateral in Boundary F 
                                                       flow       low        
 CONCENTRATION                           
 SWT_Normal           1.9330E+01 4.3112E-01 4.4538E-02 7.7429E+00 1.1112E+01
 
  63.54% Completed


 DUMP OF INTERMEDIATE RESULTS IN SELECTED SEGMENTS
  TIME =   2D 13H  0M  0S .
 
 TOTAL MASS IN SYSTEM 1.8602E+05 4.0843E+03 4.2194E+02 7.4545E+04 1.0697E+05
 CHANGES BY PROCESSES 0.0000E+00 0.0000E+00 0.0000E+00 0.0000E+00 0.0000E+00
 CHANGES BY LOADS     0.0000E+00 0.0000E+00 0.0000E+00 0.0000E+00 0.0000E+00
 BOUNDARY INFLOWS     9.3740E+03 0.0000E+00 3.2540E+03 2.5200E+03 3.6000E+03
 BOUNDARY OUTFLOWS    6.4800E+03 0.0000E+00 3.2540E+03 1.3283E+03 1.8976E+03
                      Check      Initial    Internal   Lateral in Boundary F 
                                                       flow       low        
 CONCENTRATION                           
 SWT_Normal           1.9636E+01 4.3112E-01 4.4538E-02 7.8687E+00 1.1292E+01
 
  64.58% Completed


 DUMP OF INTERMEDIATE RESULTS IN SELECTED SEGMENTS
  TIME =   2D 14H  0M  0S .
 
 TOTAL MASS IN SYSTEM 1.8892E+05 4.0843E+03 4.2194E+02 7.5737E+04 1.0867E+05
 CHANGES BY PROCESSES 0.0000E+00 0.0000E+00 0.0000E+00 0.0000E+00 0.0000E+00
 CHANGES BY LOADS     0.0000E+00 0.0000E+00 0.0000E+00 0.0000E+00 0.0000E+00
 BOUNDARY INFLOWS     9.3740E+03 0.0000E+00 3.2540E+03 2.5200E+03 3.6000E+03
 BOUNDARY OUTFLOWS    6.4800E+03 0.0000E+00 3.2540E+03 1.3283E+03 1.8976E+03
                      Check      Initial    Internal   Lateral in Boundary F 
                                                       flow       low        
 CONCENTRATION                           
 SWT_Normal           1.9941E+01 4.3112E-01 4.4538E-02 7.9945E+00 1.1471E+01
 
  65.62% Completed


 DUMP OF INTERMEDIATE RESULTS IN SELECTED SEGMENTS
  TIME =   2D 15H  0M  0S .
 
 TOTAL MASS IN SYSTEM 1.9181E+05 4.0843E+03 4.2194E+02 7.6928E+04 1.1038E+05
 CHANGES BY PROCESSES 0.0000E+00 0.0000E+00 0.0000E+00 0.0000E+00 0.0000E+00
 CHANGES BY LOADS     0.0000E+00 0.0000E+00 0.0000E+00 0.0000E+00 0.0000E+00
 BOUNDARY INFLOWS     9.3740E+03 0.0000E+00 3.2540E+03 2.5200E+03 3.6000E+03
 BOUNDARY OUTFLOWS    6.4800E+03 0.0000E+00 3.2540E+03 1.3283E+03 1.8976E+03
                      Check      Initial    Internal   Lateral in Boundary F 
                                                       flow       low        
 CONCENTRATION                           
 SWT_Normal           2.0247E+01 4.3112E-01 4.4538E-02 8.1202E+00 1.1651E+01
 
1
                                             Fraction calculation Sobek-WQ           
                                                                                     
                                                                                     
                                             T0: 2012.01.01 00:00:00  (scu=       1s)
  66.67% Completed


 DUMP OF INTERMEDIATE RESULTS IN SELECTED SEGMENTS
  TIME =   2D 16H  0M  0S .
 
 TOTAL MASS IN SYSTEM 1.9471E+05 4.0843E+03 4.2194E+02 7.8120E+04 1.1208E+05
 CHANGES BY PROCESSES 0.0000E+00 0.0000E+00 0.0000E+00 0.0000E+00 0.0000E+00
 CHANGES BY LOADS     0.0000E+00 0.0000E+00 0.0000E+00 0.0000E+00 0.0000E+00
 BOUNDARY INFLOWS     9.3740E+03 0.0000E+00 3.2540E+03 2.5200E+03 3.6000E+03
 BOUNDARY OUTFLOWS    6.4800E+03 0.0000E+00 3.2540E+03 1.3283E+03 1.8976E+03
                      Check      Initial    Internal   Lateral in Boundary F 
                                                       flow       low        
 CONCENTRATION                           
 SWT_Normal           2.0552E+01 4.3112E-01 4.4538E-02 8.2460E+00 1.1831E+01
 
  67.71% Completed


 DUMP OF INTERMEDIATE RESULTS IN SELECTED SEGMENTS
  TIME =   2D 17H  0M  0S .
 
 TOTAL MASS IN SYSTEM 1.9760E+05 4.0843E+03 4.2194E+02 7.9312E+04 1.1378E+05
 CHANGES BY PROCESSES 0.0000E+00 0.0000E+00 0.0000E+00 0.0000E+00 0.0000E+00
 CHANGES BY LOADS     0.0000E+00 0.0000E+00 0.0000E+00 0.0000E+00 0.0000E+00
 BOUNDARY INFLOWS     9.3740E+03 0.0000E+00 3.2540E+03 2.5200E+03 3.6000E+03
 BOUNDARY OUTFLOWS    6.4800E+03 0.0000E+00 3.2540E+03 1.3283E+03 1.8976E+03
                      Check      Initial    Internal   Lateral in Boundary F 
                                                       flow       low        
 CONCENTRATION                           
 SWT_Normal           2.0858E+01 4.3112E-01 4.4538E-02 8.3718E+00 1.2010E+01
 
  68.75% Completed


 DUMP OF INTERMEDIATE RESULTS IN SELECTED SEGMENTS
  TIME =   2D 18H  0M  0S .
 
 TOTAL MASS IN SYSTEM 2.0049E+05 4.0843E+03 4.2194E+02 8.0503E+04 1.1548E+05
 CHANGES BY PROCESSES 0.0000E+00 0.0000E+00 0.0000E+00 0.0000E+00 0.0000E+00
 CHANGES BY LOADS     0.0000E+00 0.0000E+00 0.0000E+00 0.0000E+00 0.0000E+00
 BOUNDARY INFLOWS     9.3740E+03 0.0000E+00 3.2540E+03 2.5200E+03 3.6000E+03
 BOUNDARY OUTFLOWS    6.4800E+03 0.0000E+00 3.2540E+03 1.3283E+03 1.8976E+03
                      Check      Initial    Internal   Lateral in Boundary F 
                                                       flow       low        
 CONCENTRATION                           
 SWT_Normal           2.1163E+01 4.3112E-01 4.4538E-02 8.4976E+00 1.2190E+01
 
  69.79% Completed


 DUMP OF INTERMEDIATE RESULTS IN SELECTED SEGMENTS
  TIME =   2D 19H  0M  0S .
 
 TOTAL MASS IN SYSTEM 2.0339E+05 4.0843E+03 4.2194E+02 8.1695E+04 1.1719E+05
 CHANGES BY PROCESSES 0.0000E+00 0.0000E+00 0.0000E+00 0.0000E+00 0.0000E+00
 CHANGES BY LOADS     0.0000E+00 0.0000E+00 0.0000E+00 0.0000E+00 0.0000E+00
 BOUNDARY INFLOWS     9.3740E+03 0.0000E+00 3.2540E+03 2.5200E+03 3.6000E+03
 BOUNDARY OUTFLOWS    6.4800E+03 0.0000E+00 3.2540E+03 1.3283E+03 1.8976E+03
                      Check      Initial    Internal   Lateral in Boundary F 
                                                       flow       low        
 CONCENTRATION                           
 SWT_Normal           2.1469E+01 4.3112E-01 4.4538E-02 8.6234E+00 1.2370E+01
 
1
                                             Fraction calculation Sobek-WQ           
                                                                                     
                                                                                     
                                             T0: 2012.01.01 00:00:00  (scu=       1s)
  70.83% Completed


 DUMP OF INTERMEDIATE RESULTS IN SELECTED SEGMENTS
  TIME =   2D 20H  0M  0S .
 
 TOTAL MASS IN SYSTEM 2.0628E+05 4.0843E+03 4.2194E+02 8.2887E+04 1.1889E+05
 CHANGES BY PROCESSES 0.0000E+00 0.0000E+00 0.0000E+00 0.0000E+00 0.0000E+00
 CHANGES BY LOADS     0.0000E+00 0.0000E+00 0.0000E+00 0.0000E+00 0.0000E+00
 BOUNDARY INFLOWS     9.3740E+03 0.0000E+00 3.2540E+03 2.5200E+03 3.6000E+03
 BOUNDARY OUTFLOWS    6.4800E+03 0.0000E+00 3.2540E+03 1.3283E+03 1.8976E+03
                      Check      Initial    Internal   Lateral in Boundary F 
                                                       flow       low        
 CONCENTRATION                           
 SWT_Normal           2.1774E+01 4.3112E-01 4.4538E-02 8.7492E+00 1.2549E+01
 
  71.88% Completed


 DUMP OF INTERMEDIATE RESULTS IN SELECTED SEGMENTS
  TIME =   2D 21H  0M  0S .
 
 TOTAL MASS IN SYSTEM 2.0918E+05 4.0843E+03 4.2194E+02 8.4078E+04 1.2059E+05
 CHANGES BY PROCESSES 0.0000E+00 0.0000E+00 0.0000E+00 0.0000E+00 0.0000E+00
 CHANGES BY LOADS     0.0000E+00 0.0000E+00 0.0000E+00 0.0000E+00 0.0000E+00
 BOUNDARY INFLOWS     9.3740E+03 0.0000E+00 3.2540E+03 2.5200E+03 3.6000E+03
 BOUNDARY OUTFLOWS    6.4800E+03 0.0000E+00 3.2540E+03 1.3283E+03 1.8976E+03
                      Check      Initial    Internal   Lateral in Boundary F 
                                                       flow       low        
 CONCENTRATION                           
 SWT_Normal           2.2080E+01 4.3112E-01 4.4538E-02 8.8750E+00 1.2729E+01
 
  72.92% Completed


 DUMP OF INTERMEDIATE RESULTS IN SELECTED SEGMENTS
  TIME =   2D 22H  0M  0S .
 
 TOTAL MASS IN SYSTEM 2.1207E+05 4.0843E+03 4.2194E+02 8.5270E+04 1.2229E+05
 CHANGES BY PROCESSES 0.0000E+00 0.0000E+00 0.0000E+00 0.0000E+00 0.0000E+00
 CHANGES BY LOADS     0.0000E+00 0.0000E+00 0.0000E+00 0.0000E+00 0.0000E+00
 BOUNDARY INFLOWS     9.3740E+03 0.0000E+00 3.2540E+03 2.5200E+03 3.6000E+03
 BOUNDARY OUTFLOWS    6.4800E+03 0.0000E+00 3.2540E+03 1.3283E+03 1.8976E+03
                      Check      Initial    Internal   Lateral in Boundary F 
                                                       flow       low        
 CONCENTRATION                           
 SWT_Normal           2.2385E+01 4.3112E-01 4.4538E-02 9.0007E+00 1.2909E+01
 
  73.96% Completed


 DUMP OF INTERMEDIATE RESULTS IN SELECTED SEGMENTS
  TIME =   2D 23H  0M  0S .
 
 TOTAL MASS IN SYSTEM 2.1496E+05 4.0843E+03 4.2194E+02 8.6462E+04 1.2400E+05
 CHANGES BY PROCESSES 0.0000E+00 0.0000E+00 0.0000E+00 0.0000E+00 0.0000E+00
 CHANGES BY LOADS     0.0000E+00 0.0000E+00 0.0000E+00 0.0000E+00 0.0000E+00
 BOUNDARY INFLOWS     9.3740E+03 0.0000E+00 3.2540E+03 2.5200E+03 3.6000E+03
 BOUNDARY OUTFLOWS    6.4800E+03 0.0000E+00 3.2540E+03 1.3283E+03 1.8976E+03
                      Check      Initial    Internal   Lateral in Boundary F 
                                                       flow       low        
 CONCENTRATION                           
 SWT_Normal           2.2691E+01 4.3112E-01 4.4538E-02 9.1265E+00 1.3089E+01
 
1
                                             Fraction calculation Sobek-WQ           
                                                                                     
                                                                                     
                                             T0: 2012.01.01 00:00:00  (scu=       1s)
  75.00% Completed


 DUMP OF INTERMEDIATE RESULTS IN SELECTED SEGMENTS
  TIME =   3D  0H  0M  0S .
 
 TOTAL MASS IN SYSTEM 2.1786E+05 4.0843E+03 4.2194E+02 8.7653E+04 1.2570E+05
 CHANGES BY PROCESSES 0.0000E+00 0.0000E+00 0.0000E+00 0.0000E+00 0.0000E+00
 CHANGES BY LOADS     0.0000E+00 0.0000E+00 0.0000E+00 0.0000E+00 0.0000E+00
 BOUNDARY INFLOWS     9.3740E+03 0.0000E+00 3.2540E+03 2.5200E+03 3.6000E+03
 BOUNDARY OUTFLOWS    6.4800E+03 0.0000E+00 3.2540E+03 1.3283E+03 1.8976E+03
                      Check      Initial    Internal   Lateral in Boundary F 
                                                       flow       low        
 CONCENTRATION                           
 SWT_Normal           2.2996E+01 4.3112E-01 4.4538E-02 9.2523E+00 1.3268E+01
 
  76.04% Completed


 DUMP OF INTERMEDIATE RESULTS IN SELECTED SEGMENTS
  TIME =   3D  1H  0M  0S .
 
 TOTAL MASS IN SYSTEM 2.2075E+05 4.0843E+03 4.2194E+02 8.8845E+04 1.2740E+05
 CHANGES BY PROCESSES 0.0000E+00 0.0000E+00 0.0000E+00 0.0000E+00 0.0000E+00
 CHANGES BY LOADS     0.0000E+00 0.0000E+00 0.0000E+00 0.0000E+00 0.0000E+00
 BOUNDARY INFLOWS     9.3740E+03 0.0000E+00 3.2540E+03 2.5200E+03 3.6000E+03
 BOUNDARY OUTFLOWS    6.4800E+03 0.0000E+00 3.2540E+03 1.3283E+03 1.8976E+03
                      Check      Initial    Internal   Lateral in Boundary F 
                                                       flow       low        
 CONCENTRATION                           
 SWT_Normal           2.3302E+01 4.3112E-01 4.4538E-02 9.3781E+00 1.3448E+01
 
  77.08% Completed


 DUMP OF INTERMEDIATE RESULTS IN SELECTED SEGMENTS
  TIME =   3D  2H  0M  0S .
 
 TOTAL MASS IN SYSTEM 2.2365E+05 4.0843E+03 4.2194E+02 9.0036E+04 1.2910E+05
 CHANGES BY PROCESSES 0.0000E+00 0.0000E+00 0.0000E+00 0.0000E+00 0.0000E+00
 CHANGES BY LOADS     0.0000E+00 0.0000E+00 0.0000E+00 0.0000E+00 0.0000E+00
 BOUNDARY INFLOWS     9.3740E+03 0.0000E+00 3.2540E+03 2.5200E+03 3.6000E+03
 BOUNDARY OUTFLOWS    6.4800E+03 0.0000E+00 3.2540E+03 1.3283E+03 1.8976E+03
                      Check      Initial    Internal   Lateral in Boundary F 
                                                       flow       low        
 CONCENTRATION                           
 SWT_Normal           2.3607E+01 4.3112E-01 4.4538E-02 9.5039E+00 1.3628E+01
 
  78.12% Completed


 DUMP OF INTERMEDIATE RESULTS IN SELECTED SEGMENTS
  TIME =   3D  3H  0M  0S .
 
 TOTAL MASS IN SYSTEM 2.2654E+05 4.0843E+03 4.2194E+02 9.1228E+04 1.3081E+05
 CHANGES BY PROCESSES 0.0000E+00 0.0000E+00 0.0000E+00 0.0000E+00 0.0000E+00
 CHANGES BY LOADS     0.0000E+00 0.0000E+00 0.0000E+00 0.0000E+00 0.0000E+00
 BOUNDARY INFLOWS     9.3740E+03 0.0000E+00 3.2540E+03 2.5200E+03 3.6000E+03
 BOUNDARY OUTFLOWS    6.4800E+03 0.0000E+00 3.2540E+03 1.3283E+03 1.8976E+03
                      Check      Initial    Internal   Lateral in Boundary F 
                                                       flow       low        
 CONCENTRATION                           
 SWT_Normal           2.3913E+01 4.3112E-01 4.4538E-02 9.6297E+00 1.3807E+01
 
1
                                             Fraction calculation Sobek-WQ           
                                                                                     
                                                                                     
                                             T0: 2012.01.01 00:00:00  (scu=       1s)
  79.17% Completed


 DUMP OF INTERMEDIATE RESULTS IN SELECTED SEGMENTS
  TIME =   3D  4H  0M  0S .
 
 TOTAL MASS IN SYSTEM 2.2943E+05 4.0843E+03 4.2194E+02 9.2420E+04 1.3251E+05
 CHANGES BY PROCESSES 0.0000E+00 0.0000E+00 0.0000E+00 0.0000E+00 0.0000E+00
 CHANGES BY LOADS     0.0000E+00 0.0000E+00 0.0000E+00 0.0000E+00 0.0000E+00
 BOUNDARY INFLOWS     9.3740E+03 0.0000E+00 3.2540E+03 2.5200E+03 3.6000E+03
 BOUNDARY OUTFLOWS    6.4800E+03 0.0000E+00 3.2540E+03 1.3283E+03 1.8976E+03
                      Check      Initial    Internal   Lateral in Boundary F 
                                                       flow       low        
 CONCENTRATION                           
 SWT_Normal           2.4218E+01 4.3112E-01 4.4538E-02 9.7555E+00 1.3987E+01
 
  80.21% Completed


 DUMP OF INTERMEDIATE RESULTS IN SELECTED SEGMENTS
  TIME =   3D  5H  0M  0S .
 
 TOTAL MASS IN SYSTEM 2.3233E+05 4.0843E+03 4.2194E+02 9.3611E+04 1.3421E+05
 CHANGES BY PROCESSES 0.0000E+00 0.0000E+00 0.0000E+00 0.0000E+00 0.0000E+00
 CHANGES BY LOADS     0.0000E+00 0.0000E+00 0.0000E+00 0.0000E+00 0.0000E+00
 BOUNDARY INFLOWS     9.3740E+03 0.0000E+00 3.2540E+03 2.5200E+03 3.6000E+03
 BOUNDARY OUTFLOWS    6.4800E+03 0.0000E+00 3.2540E+03 1.3283E+03 1.8976E+03
                      Check      Initial    Internal   Lateral in Boundary F 
                                                       flow       low        
 CONCENTRATION                           
 SWT_Normal           2.4524E+01 4.3112E-01 4.4538E-02 9.8812E+00 1.4167E+01
 
  81.25% Completed


 DUMP OF INTERMEDIATE RESULTS IN SELECTED SEGMENTS
  TIME =   3D  6H  0M  0S .
 
 TOTAL MASS IN SYSTEM 2.3522E+05 4.0843E+03 4.2194E+02 9.4803E+04 1.3591E+05
 CHANGES BY PROCESSES 0.0000E+00 0.0000E+00 0.0000E+00 0.0000E+00 0.0000E+00
 CHANGES BY LOADS     0.0000E+00 0.0000E+00 0.0000E+00 0.0000E+00 0.0000E+00
 BOUNDARY INFLOWS     9.3740E+03 0.0000E+00 3.2540E+03 2.5200E+03 3.6000E+03
 BOUNDARY OUTFLOWS    6.4800E+03 0.0000E+00 3.2540E+03 1.3283E+03 1.8976E+03
                      Check      Initial    Internal   Lateral in Boundary F 
                                                       flow       low        
 CONCENTRATION                           
 SWT_Normal           2.4829E+01 4.3112E-01 4.4538E-02 1.0007E+01 1.4346E+01
 
  82.29% Completed


 DUMP OF INTERMEDIATE RESULTS IN SELECTED SEGMENTS
  TIME =   3D  7H  0M  0S .
 
 TOTAL MASS IN SYSTEM 2.3812E+05 4.0843E+03 4.2194E+02 9.5995E+04 1.3762E+05
 CHANGES BY PROCESSES 0.0000E+00 0.0000E+00 0.0000E+00 0.0000E+00 0.0000E+00
 CHANGES BY LOADS     0.0000E+00 0.0000E+00 0.0000E+00 0.0000E+00 0.0000E+00
 BOUNDARY INFLOWS     9.3740E+03 0.0000E+00 3.2540E+03 2.5200E+03 3.6000E+03
 BOUNDARY OUTFLOWS    6.4800E+03 0.0000E+00 3.2540E+03 1.3283E+03 1.8976E+03
                      Check      Initial    Internal   Lateral in Boundary F 
                                                       flow       low        
 CONCENTRATION                           
 SWT_Normal           2.5135E+01 4.3112E-01 4.4538E-02 1.0133E+01 1.4526E+01
 
1
                                             Fraction calculation Sobek-WQ           
                                                                                     
                                                                                     
                                             T0: 2012.01.01 00:00:00  (scu=       1s)
  83.33% Completed


 DUMP OF INTERMEDIATE RESULTS IN SELECTED SEGMENTS
  TIME =   3D  8H  0M  0S .
 
 TOTAL MASS IN SYSTEM 2.4101E+05 4.0843E+03 4.2194E+02 9.7186E+04 1.3932E+05
 CHANGES BY PROCESSES 0.0000E+00 0.0000E+00 0.0000E+00 0.0000E+00 0.0000E+00
 CHANGES BY LOADS     0.0000E+00 0.0000E+00 0.0000E+00 0.0000E+00 0.0000E+00
 BOUNDARY INFLOWS     9.3740E+03 0.0000E+00 3.2540E+03 2.5200E+03 3.6000E+03
 BOUNDARY OUTFLOWS    6.4800E+03 0.0000E+00 3.2540E+03 1.3283E+03 1.8976E+03
                      Check      Initial    Internal   Lateral in Boundary F 
                                                       flow       low        
 CONCENTRATION                           
 SWT_Normal           2.5440E+01 4.3112E-01 4.4538E-02 1.0259E+01 1.4706E+01
 
  84.38% Completed


 DUMP OF INTERMEDIATE RESULTS IN SELECTED SEGMENTS
  TIME =   3D  9H  0M  0S .
 
 TOTAL MASS IN SYSTEM 2.4390E+05 4.0843E+03 4.2194E+02 9.8378E+04 1.4102E+05
 CHANGES BY PROCESSES 0.0000E+00 0.0000E+00 0.0000E+00 0.0000E+00 0.0000E+00
 CHANGES BY LOADS     0.0000E+00 0.0000E+00 0.0000E+00 0.0000E+00 0.0000E+00
 BOUNDARY INFLOWS     9.3740E+03 0.0000E+00 3.2540E+03 2.5200E+03 3.6000E+03
 BOUNDARY OUTFLOWS    6.4800E+03 0.0000E+00 3.2540E+03 1.3283E+03 1.8976E+03
                      Check      Initial    Internal   Lateral in Boundary F 
                                                       flow       low        
 CONCENTRATION                           
 SWT_Normal           2.5746E+01 4.3112E-01 4.4538E-02 1.0384E+01 1.4886E+01
 
  85.42% Completed


 DUMP OF INTERMEDIATE RESULTS IN SELECTED SEGMENTS
  TIME =   3D 10H  0M  0S .
 
 TOTAL MASS IN SYSTEM 2.4680E+05 4.0843E+03 4.2194E+02 9.9570E+04 1.4272E+05
 CHANGES BY PROCESSES 0.0000E+00 0.0000E+00 0.0000E+00 0.0000E+00 0.0000E+00
 CHANGES BY LOADS     0.0000E+00 0.0000E+00 0.0000E+00 0.0000E+00 0.0000E+00
 BOUNDARY INFLOWS     9.3740E+03 0.0000E+00 3.2540E+03 2.5200E+03 3.6000E+03
 BOUNDARY OUTFLOWS    6.4800E+03 0.0000E+00 3.2540E+03 1.3283E+03 1.8976E+03
                      Check      Initial    Internal   Lateral in Boundary F 
                                                       flow       low        
 CONCENTRATION                           
 SWT_Normal           2.6051E+01 4.3112E-01 4.4538E-02 1.0510E+01 1.5065E+01
 
  86.46% Completed


 DUMP OF INTERMEDIATE RESULTS IN SELECTED SEGMENTS
  TIME =   3D 11H  0M  0S .
 
 TOTAL MASS IN SYSTEM 2.4969E+05 4.0843E+03 4.2194E+02 1.0076E+05 1.4442E+05
 CHANGES BY PROCESSES 0.0000E+00 0.0000E+00 0.0000E+00 0.0000E+00 0.0000E+00
 CHANGES BY LOADS     0.0000E+00 0.0000E+00 0.0000E+00 0.0000E+00 0.0000E+00
 BOUNDARY INFLOWS     9.3740E+03 0.0000E+00 3.2540E+03 2.5200E+03 3.6000E+03
 BOUNDARY OUTFLOWS    6.4800E+03 0.0000E+00 3.2540E+03 1.3283E+03 1.8976E+03
                      Check      Initial    Internal   Lateral in Boundary F 
                                                       flow       low        
 CONCENTRATION                           
 SWT_Normal           2.6357E+01 4.3112E-01 4.4538E-02 1.0636E+01 1.5245E+01
 
1
                                             Fraction calculation Sobek-WQ           
                                                                                     
                                                                                     
                                             T0: 2012.01.01 00:00:00  (scu=       1s)
  87.50% Completed


 DUMP OF INTERMEDIATE RESULTS IN SELECTED SEGMENTS
  TIME =   3D 12H  0M  0S .
 
 TOTAL MASS IN SYSTEM 2.5259E+05 4.0843E+03 4.2194E+02 1.0195E+05 1.4613E+05
 CHANGES BY PROCESSES 0.0000E+00 0.0000E+00 0.0000E+00 0.0000E+00 0.0000E+00
 CHANGES BY LOADS     0.0000E+00 0.0000E+00 0.0000E+00 0.0000E+00 0.0000E+00
 BOUNDARY INFLOWS     9.3740E+03 0.0000E+00 3.2540E+03 2.5200E+03 3.6000E+03
 BOUNDARY OUTFLOWS    6.4800E+03 0.0000E+00 3.2540E+03 1.3283E+03 1.8976E+03
                      Check      Initial    Internal   Lateral in Boundary F 
                                                       flow       low        
 CONCENTRATION                           
 SWT_Normal           2.6662E+01 4.3112E-01 4.4538E-02 1.0762E+01 1.5425E+01
 
  88.54% Completed


 DUMP OF INTERMEDIATE RESULTS IN SELECTED SEGMENTS
  TIME =   3D 13H  0M  0S .
 
 TOTAL MASS IN SYSTEM 2.5548E+05 4.0843E+03 4.2194E+02 1.0314E+05 1.4783E+05
 CHANGES BY PROCESSES 0.0000E+00 0.0000E+00 0.0000E+00 0.0000E+00 0.0000E+00
 CHANGES BY LOADS     0.0000E+00 0.0000E+00 0.0000E+00 0.0000E+00 0.0000E+00
 BOUNDARY INFLOWS     9.3740E+03 0.0000E+00 3.2540E+03 2.5200E+03 3.6000E+03
 BOUNDARY OUTFLOWS    6.4800E+03 0.0000E+00 3.2540E+03 1.3283E+03 1.8976E+03
                      Check      Initial    Internal   Lateral in Boundary F 
                                                       flow       low        
 CONCENTRATION                           
 SWT_Normal           2.6968E+01 4.3112E-01 4.4538E-02 1.0888E+01 1.5604E+01
 
  89.58% Completed


 DUMP OF INTERMEDIATE RESULTS IN SELECTED SEGMENTS
  TIME =   3D 14H  0M  0S .
 
 TOTAL MASS IN SYSTEM 2.5837E+05 4.0843E+03 4.2194E+02 1.0434E+05 1.4953E+05
 CHANGES BY PROCESSES 0.0000E+00 0.0000E+00 0.0000E+00 0.0000E+00 0.0000E+00
 CHANGES BY LOADS     0.0000E+00 0.0000E+00 0.0000E+00 0.0000E+00 0.0000E+00
 BOUNDARY INFLOWS     9.3740E+03 0.0000E+00 3.2540E+03 2.5200E+03 3.6000E+03
 BOUNDARY OUTFLOWS    6.4800E+03 0.0000E+00 3.2540E+03 1.3283E+03 1.8976E+03
                      Check      Initial    Internal   Lateral in Boundary F 
                                                       flow       low        
 CONCENTRATION                           
 SWT_Normal           2.7273E+01 4.3112E-01 4.4538E-02 1.1013E+01 1.5784E+01
 
  90.62% Completed


 DUMP OF INTERMEDIATE RESULTS IN SELECTED SEGMENTS
  TIME =   3D 15H  0M  0S .
 
 TOTAL MASS IN SYSTEM 2.6127E+05 4.0843E+03 4.2194E+02 1.0553E+05 1.5123E+05
 CHANGES BY PROCESSES 0.0000E+00 0.0000E+00 0.0000E+00 0.0000E+00 0.0000E+00
 CHANGES BY LOADS     0.0000E+00 0.0000E+00 0.0000E+00 0.0000E+00 0.0000E+00
 BOUNDARY INFLOWS     9.3740E+03 0.0000E+00 3.2540E+03 2.5200E+03 3.6000E+03
 BOUNDARY OUTFLOWS    6.4800E+03 0.0000E+00 3.2540E+03 1.3283E+03 1.8976E+03
                      Check      Initial    Internal   Lateral in Boundary F 
                                                       flow       low        
 CONCENTRATION                           
 SWT_Normal           2.7578E+01 4.3112E-01 4.4538E-02 1.1139E+01 1.5964E+01
 
1
                                             Fraction calculation Sobek-WQ           
                                                                                     
                                                                                     
                                             T0: 2012.01.01 00:00:00  (scu=       1s)
  91.67% Completed


 DUMP OF INTERMEDIATE RESULTS IN SELECTED SEGMENTS
  TIME =   3D 16H  0M  0S .
 
 TOTAL MASS IN SYSTEM 2.6416E+05 4.0843E+03 4.2194E+02 1.0672E+05 1.5294E+05
 CHANGES BY PROCESSES 0.0000E+00 0.0000E+00 0.0000E+00 0.0000E+00 0.0000E+00
 CHANGES BY LOADS     0.0000E+00 0.0000E+00 0.0000E+00 0.0000E+00 0.0000E+00
 BOUNDARY INFLOWS     9.3740E+03 0.0000E+00 3.2540E+03 2.5200E+03 3.6000E+03
 BOUNDARY OUTFLOWS    6.4800E+03 0.0000E+00 3.2540E+03 1.3283E+03 1.8976E+03
                      Check      Initial    Internal   Lateral in Boundary F 
                                                       flow       low        
 CONCENTRATION                           
 SWT_Normal           2.7884E+01 4.3112E-01 4.4538E-02 1.1265E+01 1.6143E+01
 
  92.71% Completed


 DUMP OF INTERMEDIATE RESULTS IN SELECTED SEGMENTS
  TIME =   3D 17H  0M  0S .
 
 TOTAL MASS IN SYSTEM 2.6706E+05 4.0843E+03 4.2194E+02 1.0791E+05 1.5464E+05
 CHANGES BY PROCESSES 0.0000E+00 0.0000E+00 0.0000E+00 0.0000E+00 0.0000E+00
 CHANGES BY LOADS     0.0000E+00 0.0000E+00 0.0000E+00 0.0000E+00 0.0000E+00
 BOUNDARY INFLOWS     9.3740E+03 0.0000E+00 3.2540E+03 2.5200E+03 3.6000E+03
 BOUNDARY OUTFLOWS    6.4800E+03 0.0000E+00 3.2540E+03 1.3283E+03 1.8976E+03
                      Check      Initial    Internal   Lateral in Boundary F 
                                                       flow       low        
 CONCENTRATION                           
 SWT_Normal           2.8189E+01 4.3112E-01 4.4538E-02 1.1391E+01 1.6323E+01
 
  93.75% Completed


 DUMP OF INTERMEDIATE RESULTS IN SELECTED SEGMENTS
  TIME =   3D 18H  0M  0S .
 
 TOTAL MASS IN SYSTEM 2.6995E+05 4.0843E+03 4.2194E+02 1.0910E+05 1.5634E+05
 CHANGES BY PROCESSES 0.0000E+00 0.0000E+00 0.0000E+00 0.0000E+00 0.0000E+00
 CHANGES BY LOADS     0.0000E+00 0.0000E+00 0.0000E+00 0.0000E+00 0.0000E+00
 BOUNDARY INFLOWS     9.3740E+03 0.0000E+00 3.2540E+03 2.5200E+03 3.6000E+03
 BOUNDARY OUTFLOWS    6.4800E+03 0.0000E+00 3.2540E+03 1.3283E+03 1.8976E+03
                      Check      Initial    Internal   Lateral in Boundary F 
                                                       flow       low        
 CONCENTRATION                           
 SWT_Normal           2.8495E+01 4.3112E-01 4.4538E-02 1.1516E+01 1.6503E+01
 
  94.79% Completed


 DUMP OF INTERMEDIATE RESULTS IN SELECTED SEGMENTS
  TIME =   3D 19H  0M  0S .
 
 TOTAL MASS IN SYSTEM 2.7284E+05 4.0843E+03 4.2194E+02 1.1029E+05 1.5804E+05
 CHANGES BY PROCESSES 0.0000E+00 0.0000E+00 0.0000E+00 0.0000E+00 0.0000E+00
 CHANGES BY LOADS     0.0000E+00 0.0000E+00 0.0000E+00 0.0000E+00 0.0000E+00
 BOUNDARY INFLOWS     9.3740E+03 0.0000E+00 3.2540E+03 2.5200E+03 3.6000E+03
 BOUNDARY OUTFLOWS    6.4800E+03 0.0000E+00 3.2540E+03 1.3283E+03 1.8976E+03
                      Check      Initial    Internal   Lateral in Boundary F 
                                                       flow       low        
 CONCENTRATION                           
 SWT_Normal           2.8800E+01 4.3112E-01 4.4538E-02 1.1642E+01 1.6682E+01
 
1
                                             Fraction calculation Sobek-WQ           
                                                                                     
                                                                                     
                                             T0: 2012.01.01 00:00:00  (scu=       1s)
  95.83% Completed


 DUMP OF INTERMEDIATE RESULTS IN SELECTED SEGMENTS
  TIME =   3D 20H  0M  0S .
 
 TOTAL MASS IN SYSTEM 2.7574E+05 4.0843E+03 4.2194E+02 1.1149E+05 1.5975E+05
 CHANGES BY PROCESSES 0.0000E+00 0.0000E+00 0.0000E+00 0.0000E+00 0.0000E+00
 CHANGES BY LOADS     0.0000E+00 0.0000E+00 0.0000E+00 0.0000E+00 0.0000E+00
 BOUNDARY INFLOWS     9.3740E+03 0.0000E+00 3.2540E+03 2.5200E+03 3.6000E+03
 BOUNDARY OUTFLOWS    6.4800E+03 0.0000E+00 3.2540E+03 1.3283E+03 1.8976E+03
                      Check      Initial    Internal   Lateral in Boundary F 
                                                       flow       low        
 CONCENTRATION                           
 SWT_Normal           2.9106E+01 4.3112E-01 4.4538E-02 1.1768E+01 1.6862E+01
 
  96.88% Completed


 DUMP OF INTERMEDIATE RESULTS IN SELECTED SEGMENTS
  TIME =   3D 21H  0M  0S .
 
 TOTAL MASS IN SYSTEM 2.7863E+05 4.0843E+03 4.2194E+02 1.1268E+05 1.6145E+05
 CHANGES BY PROCESSES 0.0000E+00 0.0000E+00 0.0000E+00 0.0000E+00 0.0000E+00
 CHANGES BY LOADS     0.0000E+00 0.0000E+00 0.0000E+00 0.0000E+00 0.0000E+00
 BOUNDARY INFLOWS     9.3740E+03 0.0000E+00 3.2540E+03 2.5200E+03 3.6000E+03
 BOUNDARY OUTFLOWS    6.4800E+03 0.0000E+00 3.2540E+03 1.3283E+03 1.8976E+03
                      Check      Initial    Internal   Lateral in Boundary F 
                                                       flow       low        
 CONCENTRATION                           
 SWT_Normal           2.9411E+01 4.3112E-01 4.4538E-02 1.1894E+01 1.7042E+01
 
  97.92% Completed


 DUMP OF INTERMEDIATE RESULTS IN SELECTED SEGMENTS
  TIME =   3D 22H  0M  0S .
 
 TOTAL MASS IN SYSTEM 2.8153E+05 4.0843E+03 4.2194E+02 1.1387E+05 1.6315E+05
 CHANGES BY PROCESSES 0.0000E+00 0.0000E+00 0.0000E+00 0.0000E+00 0.0000E+00
 CHANGES BY LOADS     0.0000E+00 0.0000E+00 0.0000E+00 0.0000E+00 0.0000E+00
 BOUNDARY INFLOWS     9.3740E+03 0.0000E+00 3.2540E+03 2.5200E+03 3.6000E+03
 BOUNDARY OUTFLOWS    6.4800E+03 0.0000E+00 3.2540E+03 1.3283E+03 1.8976E+03
                      Check      Initial    Internal   Lateral in Boundary F 
                                                       flow       low        
 CONCENTRATION                           
 SWT_Normal           2.9717E+01 4.3112E-01 4.4538E-02 1.2020E+01 1.7222E+01
 
  98.96% Completed


 DUMP OF INTERMEDIATE RESULTS IN SELECTED SEGMENTS
  TIME =   3D 23H  0M  0S .
 
 TOTAL MASS IN SYSTEM 2.8442E+05 4.0843E+03 4.2194E+02 1.1506E+05 1.6485E+05
 CHANGES BY PROCESSES 0.0000E+00 0.0000E+00 0.0000E+00 0.0000E+00 0.0000E+00
 CHANGES BY LOADS     0.0000E+00 0.0000E+00 0.0000E+00 0.0000E+00 0.0000E+00
 BOUNDARY INFLOWS     9.3740E+03 0.0000E+00 3.2540E+03 2.5200E+03 3.6000E+03
 BOUNDARY OUTFLOWS    6.4800E+03 0.0000E+00 3.2540E+03 1.3283E+03 1.8976E+03
                      Check      Initial    Internal   Lateral in Boundary F 
                                                       flow       low        
 CONCENTRATION                           
 SWT_Normal           3.0022E+01 4.3112E-01 4.4538E-02 1.2145E+01 1.7401E+01
 

 REWIND ON       UNIT:  23, READING: ..\work\Area.dat
 AT SIMULATION TIME:    4D  0H  0M  0S !
 TIME IN FILE:          4D  0H  0M  0S !

 REWIND ON       UNIT:  24, READING: ..\work\Flow.dat
 AT SIMULATION TIME:    4D  0H  0M  0S !
 TIME IN FILE:          4D  0H  0M  0S !
1
                                             Fraction calculation Sobek-WQ           
                                                                                     
                                                                                     
                                             T0: 2012.01.01 00:00:00  (scu=       1s)
 100.00% Completed


 DUMP OF INTERMEDIATE RESULTS IN SELECTED SEGMENTS
  TIME =   4D  0H  0M  0S .
 
 TOTAL MASS IN SYSTEM 2.8732E+05 4.0843E+03 4.2194E+02 1.1625E+05 1.6656E+05
 CHANGES BY PROCESSES 0.0000E+00 0.0000E+00 0.0000E+00 0.0000E+00 0.0000E+00
 CHANGES BY LOADS     0.0000E+00 0.0000E+00 0.0000E+00 0.0000E+00 0.0000E+00
 BOUNDARY INFLOWS     9.3740E+03 0.0000E+00 3.2540E+03 2.5200E+03 3.6000E+03
 BOUNDARY OUTFLOWS    6.4800E+03 0.0000E+00 3.2540E+03 1.3283E+03 1.8976E+03
                      Check      Initial    Internal   Lateral in Boundary F 
                                                       flow       low        
 CONCENTRATION                           
 SWT_Normal           3.0328E+01 4.3112E-01 4.4538E-02 1.2271E+01 1.7581E+01
 
Performance timers:
|------------------------------------------------------------------------|
|Timer name                     |   cpu time        |    wall clock      |
|                               |-------------------|--------------------|
|                     | #times  |   sec     |  %    |    sec     |  %    |
|------------------------------------------------------------------------|
|Total                |       1 |       3.8 | 100.0 |        0.5 | 100.0 | 
|------------------------------------------------------------------------|
| *** In init, simulation:                                               |
|------------------------------------------------------------------------|
|Initialization       |       1 |       0.0 |   0.0 |        0.0 |   0.0 | 
|Integrat.routine 15  |       1 |       3.8 | 100.0 |        0.5 | 100.0 | 
|Total:               |         |       3.8 | 100.0 |        0.5 | 100.0 | 
|------------------------------------------------------------------------|
| *** In integration routine:                                            |
|------------------------------------------------------------------------|
|Total Integration:   |         |       0.0 |   0.0 |        0.0 |   0.0 | 
|------------------------------------------------------------------------|
| *** In processes library:                                              |
|------------------------------------------------------------------------|
|Total Processes:     |         |       0.0 |   0.0 |        0.0 |   0.0 | 
|------------------------------------------------------------------------|
| *** In CouPLib communications library:                                 |
|------------------------------------------------------------------------|
|Index-sets           |       6 |       0.0 |   0.0 |        0.0 |   0.0 | 
|Interfaces           |       6 |       0.0 |   0.0 |        0.0 |   0.0 | 
|Total Communication: |         |       0.0 |   0.0 |        0.0 |   0.0 | 
|------------------------------------------------------------------------|
 
 Simulation ended normal
 Execution stop : 2013/12/06 15:04:38 
