  Using options from ini file : delwaq.ini
 Delft3D-WAQ version  4.5212 17-06-2011
 Only to be used by SOBEK licensee                          
 (c) Deltares
 Execution start: 2012/01/09 11:21:33 

 Parallel processing with   1 processor(s)

 total real      array space:        914
 total integer   array space:       2002
 total character array space:        901
 grand total in 4-byte words:       3817 =   0-GB   0-MB  15-KB 268-Byte.
1                    Fraction calculation Sobek-WQ           
                                                             

                                                             
                     T0: 2012.01.01 00:00:00  (scu=       1s)

                     Initialisation from system file completed.
 partit: noseg,nolay=           7           1 , nseghr=           7
 partit: npart=  1, assigning all segments to part "npart", none to other parts
 
 CONSTANT ON UNIT:        22, READING: delwaq-dispersi.wrk                                                                                                                                                                                                                                            
 SIMULATION TIME :    0D  0H  0M  0S ! 
 TIME IN FILE    :    0D  0H  0M  0S ! 
 CONSTANT ON UNIT:        26, READING: ..\work\Length.dat                                                                                                                                                                                                                                             
 SIMULATION TIME :    0D  0H  0M  0S ! 
 TIME IN FILE    :    0D  0H  0M  0S ! 
  Closure error correction disabled
 
 Initialising numerical options for method 15...18
 
 Preconditioner switch not found, using default
 switch = 3, corrections based on lower and upper 
 
 Maximum number of iterations not found, using default
 Maximum number of iterations set to :   100
 Maximum number of vectors is:     8
 
 Relative tolerance not found, using default
 Relative tolerance set to :0.100E-06
 
 Scaling switch not found, using default
 switch = 1, scaling is switched on
 
 Iteration report switch found in input
 switch = 0, iteration report is switched off
 
 Extra functionality DLWQTR
 End extra functionality DLWQTR
1
                                             Fraction calculation Sobek-WQ           
                                                                                     
                                                                                     
                                             T0: 2012.01.01 00:00:00  (scu=       1s)
   0.00% Completed


 DUMP OF INTERMEDIATE RESULTS IN SELECTED SEGMENTS
  TIME =   0D  0H  0M  0S .
 
 TOTAL MASS IN SYSTEM 2.9976E+03 2.9976E+03 0.0000E+00
 CHANGES BY PROCESSES 0.0000E+00 0.0000E+00 0.0000E+00
 CHANGES BY LOADS     0.0000E+00 0.0000E+00 0.0000E+00
 BOUNDARY INFLOWS     0.0000E+00 0.0000E+00 0.0000E+00
 BOUNDARY OUTFLOWS    0.0000E+00 0.0000E+00 0.0000E+00
                      Check      Initial    Boundary F 
                                            low        
 CONCENTRATION                           
 SWT_Normal           1.0000E+00 1.0000E+00 0.0000E+00
 
   1.04% Completed


 DUMP OF INTERMEDIATE RESULTS IN SELECTED SEGMENTS
  TIME =   0D  1H  0M  0S .
 
 TOTAL MASS IN SYSTEM 3.0214E+03 4.8717E+02 2.5342E+03
 CHANGES BY PROCESSES 0.0000E+00 0.0000E+00 0.0000E+00
 CHANGES BY LOADS     0.0000E+00 0.0000E+00 0.0000E+00
 BOUNDARY INFLOWS     3.6000E+03 0.0000E+00 3.6000E+03
 BOUNDARY OUTFLOWS    3.5762E+03 2.5104E+03 1.0658E+03
                      Check      Initial    Boundary F 
                                            low        
 CONCENTRATION                           
 SWT_Normal           1.0000E+00 1.6124E-01 8.3876E-01
 
   2.08% Completed


 DUMP OF INTERMEDIATE RESULTS IN SELECTED SEGMENTS
  TIME =   0D  2H  0M  0S .
 
 TOTAL MASS IN SYSTEM 3.0214E+03 3.0919E+01 2.9905E+03
 CHANGES BY PROCESSES 0.0000E+00 0.0000E+00 0.0000E+00
 CHANGES BY LOADS     0.0000E+00 0.0000E+00 0.0000E+00
 BOUNDARY INFLOWS     3.6000E+03 0.0000E+00 3.6000E+03
 BOUNDARY OUTFLOWS    3.6000E+03 4.5625E+02 3.1438E+03
                      Check      Initial    Boundary F 
                                            low        
 CONCENTRATION                           
 SWT_Normal           1.0000E+00 1.0233E-02 9.8977E-01
 
   3.12% Completed


 DUMP OF INTERMEDIATE RESULTS IN SELECTED SEGMENTS
  TIME =   0D  3H  0M  0S .
 
 TOTAL MASS IN SYSTEM 3.0214E+03 1.2360E+00 3.0202E+03
 CHANGES BY PROCESSES 0.0000E+00 0.0000E+00 0.0000E+00
 CHANGES BY LOADS     0.0000E+00 0.0000E+00 0.0000E+00
 BOUNDARY INFLOWS     3.6000E+03 0.0000E+00 3.6000E+03
 BOUNDARY OUTFLOWS    3.6000E+03 2.9683E+01 3.5703E+03
                      Check      Initial    Boundary F 
                                            low        
 CONCENTRATION                           
 SWT_Normal           1.0000E+00 4.0908E-04 9.9959E-01
 
1
                                             Fraction calculation Sobek-WQ           
                                                                                     
                                                                                     
                                             T0: 2012.01.01 00:00:00  (scu=       1s)
   4.17% Completed


 DUMP OF INTERMEDIATE RESULTS IN SELECTED SEGMENTS
  TIME =   0D  4H  0M  0S .
 
 TOTAL MASS IN SYSTEM 3.0214E+03 3.9100E-02 3.0214E+03
 CHANGES BY PROCESSES 0.0000E+00 0.0000E+00 0.0000E+00
 CHANGES BY LOADS     0.0000E+00 0.0000E+00 0.0000E+00
 BOUNDARY INFLOWS     3.6000E+03 0.0000E+00 3.6000E+03
 BOUNDARY OUTFLOWS    3.6000E+03 1.1969E+00 3.5988E+03
                      Check      Initial    Boundary F 
                                            low        
 CONCENTRATION                           
 SWT_Normal           1.0000E+00 1.2941E-05 9.9999E-01
 
   5.21% Completed


 DUMP OF INTERMEDIATE RESULTS IN SELECTED SEGMENTS
  TIME =   0D  5H  0M  0S .
 
 TOTAL MASS IN SYSTEM 3.0214E+03 1.0900E-03 3.0214E+03
 CHANGES BY PROCESSES 0.0000E+00 0.0000E+00 0.0000E+00
 CHANGES BY LOADS     0.0000E+00 0.0000E+00 0.0000E+00
 BOUNDARY INFLOWS     3.6000E+03 0.0000E+00 3.6000E+03
 BOUNDARY OUTFLOWS    3.6000E+03 3.8010E-02 3.6000E+03
                      Check      Initial    Boundary F 
                                            low        
 CONCENTRATION                           
 SWT_Normal           1.0000E+00 3.6075E-07 1.0000E+00
 
   6.25% Completed


 DUMP OF INTERMEDIATE RESULTS IN SELECTED SEGMENTS
  TIME =   0D  6H  0M  0S .
 
 TOTAL MASS IN SYSTEM 3.0214E+03 2.8286E-05 3.0214E+03
 CHANGES BY PROCESSES 0.0000E+00 0.0000E+00 0.0000E+00
 CHANGES BY LOADS     0.0000E+00 0.0000E+00 0.0000E+00
 BOUNDARY INFLOWS     3.6000E+03 0.0000E+00 3.6000E+03
 BOUNDARY OUTFLOWS    3.6000E+03 1.0617E-03 3.6000E+03
                      Check      Initial    Boundary F 
                                            low        
 CONCENTRATION                           
 SWT_Normal           1.0000E+00 9.3619E-09 1.0000E+00
 
   7.29% Completed


 DUMP OF INTERMEDIATE RESULTS IN SELECTED SEGMENTS
  TIME =   0D  7H  0M  0S .
 
 TOTAL MASS IN SYSTEM 3.0214E+03 7.0406E-07 3.0214E+03
 CHANGES BY PROCESSES 0.0000E+00 0.0000E+00 0.0000E+00
 CHANGES BY LOADS     0.0000E+00 0.0000E+00 0.0000E+00
 BOUNDARY INFLOWS     3.6000E+03 0.0000E+00 3.6000E+03
 BOUNDARY OUTFLOWS    3.6000E+03 2.7582E-05 3.6000E+03
                      Check      Initial    Boundary F 
                                            low        
 CONCENTRATION                           
 SWT_Normal           1.0000E+00 2.3302E-10 1.0000E+00
 
1
                                             Fraction calculation Sobek-WQ           
                                                                                     
                                                                                     
                                             T0: 2012.01.01 00:00:00  (scu=       1s)
   8.33% Completed


 DUMP OF INTERMEDIATE RESULTS IN SELECTED SEGMENTS
  TIME =   0D  8H  0M  0S .
 
 TOTAL MASS IN SYSTEM 3.0214E+03 1.7094E-08 3.0214E+03
 CHANGES BY PROCESSES 0.0000E+00 0.0000E+00 0.0000E+00
 CHANGES BY LOADS     0.0000E+00 0.0000E+00 0.0000E+00
 BOUNDARY INFLOWS     3.6000E+03 0.0000E+00 3.6000E+03
 BOUNDARY OUTFLOWS    3.6000E+03 6.8697E-07 3.6000E+03
                      Check      Initial    Boundary F 
                                            low        
 CONCENTRATION                           
 SWT_Normal           1.0000E+00 5.6577E-12 1.0000E+00
 
   9.38% Completed


 DUMP OF INTERMEDIATE RESULTS IN SELECTED SEGMENTS
  TIME =   0D  9H  0M  0S .
 
 TOTAL MASS IN SYSTEM 3.0214E+03 4.0886E-10 3.0214E+03
 CHANGES BY PROCESSES 0.0000E+00 0.0000E+00 0.0000E+00
 CHANGES BY LOADS     0.0000E+00 0.0000E+00 0.0000E+00
 BOUNDARY INFLOWS     3.6000E+03 0.0000E+00 3.6000E+03
 BOUNDARY OUTFLOWS    3.6000E+03 1.6685E-08 3.6000E+03
                      Check      Initial    Boundary F 
                                            low        
 CONCENTRATION                           
 SWT_Normal           1.0000E+00 1.3532E-13 1.0000E+00
 
  10.42% Completed


 DUMP OF INTERMEDIATE RESULTS IN SELECTED SEGMENTS
  TIME =   0D 10H  0M  0S .
 
 TOTAL MASS IN SYSTEM 3.0214E+03 9.6899E-12 3.0214E+03
 CHANGES BY PROCESSES 0.0000E+00 0.0000E+00 0.0000E+00
 CHANGES BY LOADS     0.0000E+00 0.0000E+00 0.0000E+00
 BOUNDARY INFLOWS     3.6000E+03 0.0000E+00 3.6000E+03
 BOUNDARY OUTFLOWS    3.6000E+03 3.9917E-10 3.6000E+03
                      Check      Initial    Boundary F 
                                            low        
 CONCENTRATION                           
 SWT_Normal           1.0000E+00 3.2071E-15 1.0000E+00
 
  11.46% Completed


 DUMP OF INTERMEDIATE RESULTS IN SELECTED SEGMENTS
  TIME =   0D 11H  0M  0S .
 
 TOTAL MASS IN SYSTEM 3.0214E+03 2.2836E-13 3.0214E+03
 CHANGES BY PROCESSES 0.0000E+00 0.0000E+00 0.0000E+00
 CHANGES BY LOADS     0.0000E+00 0.0000E+00 0.0000E+00
 BOUNDARY INFLOWS     3.6000E+03 0.0000E+00 3.6000E+03
 BOUNDARY OUTFLOWS    3.6000E+03 9.4615E-12 3.6000E+03
                      Check      Initial    Boundary F 
                                            low        
 CONCENTRATION                           
 SWT_Normal           1.0000E+00 7.5581E-17 1.0000E+00
 
1
                                             Fraction calculation Sobek-WQ           
                                                                                     
                                                                                     
                                             T0: 2012.01.01 00:00:00  (scu=       1s)
  12.50% Completed


 DUMP OF INTERMEDIATE RESULTS IN SELECTED SEGMENTS
  TIME =   0D 12H  0M  0S .
 
 TOTAL MASS IN SYSTEM 3.0214E+03 5.3631E-15 3.0214E+03
 CHANGES BY PROCESSES 0.0000E+00 0.0000E+00 0.0000E+00
 CHANGES BY LOADS     0.0000E+00 0.0000E+00 0.0000E+00
 BOUNDARY INFLOWS     3.6000E+03 0.0000E+00 3.6000E+03
 BOUNDARY OUTFLOWS    3.6000E+03 2.2300E-13 3.6000E+03
                      Check      Initial    Boundary F 
                                            low        
 CONCENTRATION                           
 SWT_Normal           1.0000E+00 1.7750E-18 1.0000E+00
 
  13.54% Completed


 DUMP OF INTERMEDIATE RESULTS IN SELECTED SEGMENTS
  TIME =   0D 13H  0M  0S .
 
 TOTAL MASS IN SYSTEM 3.0214E+03 1.2568E-16 3.0214E+03
 CHANGES BY PROCESSES 0.0000E+00 0.0000E+00 0.0000E+00
 CHANGES BY LOADS     0.0000E+00 0.0000E+00 0.0000E+00
 BOUNDARY INFLOWS     3.6000E+03 0.0000E+00 3.6000E+03
 BOUNDARY OUTFLOWS    3.6000E+03 5.2374E-15 3.6000E+03
                      Check      Initial    Boundary F 
                                            low        
 CONCENTRATION                           
 SWT_Normal           1.0000E+00 4.1597E-20 1.0000E+00
 
  14.58% Completed


 DUMP OF INTERMEDIATE RESULTS IN SELECTED SEGMENTS
  TIME =   0D 14H  0M  0S .
 
 TOTAL MASS IN SYSTEM 3.0214E+03 2.9414E-18 3.0214E+03
 CHANGES BY PROCESSES 0.0000E+00 0.0000E+00 0.0000E+00
 CHANGES BY LOADS     0.0000E+00 0.0000E+00 0.0000E+00
 BOUNDARY INFLOWS     3.6000E+03 0.0000E+00 3.6000E+03
 BOUNDARY OUTFLOWS    3.6000E+03 1.2274E-16 3.6000E+03
                      Check      Initial    Boundary F 
                                            low        
 CONCENTRATION                           
 SWT_Normal           1.0000E+00 9.7352E-22 1.0000E+00
 
  15.62% Completed


 DUMP OF INTERMEDIATE RESULTS IN SELECTED SEGMENTS
  TIME =   0D 15H  0M  0S .
 
 TOTAL MASS IN SYSTEM 3.0214E+03 6.8782E-20 3.0214E+03
 CHANGES BY PROCESSES 0.0000E+00 0.0000E+00 0.0000E+00
 CHANGES BY LOADS     0.0000E+00 0.0000E+00 0.0000E+00
 BOUNDARY INFLOWS     3.6000E+03 0.0000E+00 3.6000E+03
 BOUNDARY OUTFLOWS    3.6000E+03 2.8726E-18 3.6000E+03
                      Check      Initial    Boundary F 
                                            low        
 CONCENTRATION                           
 SWT_Normal           1.0000E+00 2.2765E-23 1.0000E+00
 
1
                                             Fraction calculation Sobek-WQ           
                                                                                     
                                                                                     
                                             T0: 2012.01.01 00:00:00  (scu=       1s)
  16.67% Completed


 DUMP OF INTERMEDIATE RESULTS IN SELECTED SEGMENTS
  TIME =   0D 16H  0M  0S .
 
 TOTAL MASS IN SYSTEM 3.0214E+03 1.6076E-21 3.0214E+03
 CHANGES BY PROCESSES 0.0000E+00 0.0000E+00 0.0000E+00
 CHANGES BY LOADS     0.0000E+00 0.0000E+00 0.0000E+00
 BOUNDARY INFLOWS     3.6000E+03 0.0000E+00 3.6000E+03
 BOUNDARY OUTFLOWS    3.6000E+03 6.7175E-20 3.6000E+03
                      Check      Initial    Boundary F 
                                            low        
 CONCENTRATION                           
 SWT_Normal           1.0000E+00 5.3206E-25 1.0000E+00
 
  17.71% Completed


 DUMP OF INTERMEDIATE RESULTS IN SELECTED SEGMENTS
  TIME =   0D 17H  0M  0S .
 
 TOTAL MASS IN SYSTEM 3.0214E+03 0.0000E+00 3.0214E+03
 CHANGES BY PROCESSES 0.0000E+00 0.0000E+00 0.0000E+00
 CHANGES BY LOADS     0.0000E+00 0.0000E+00 0.0000E+00
 BOUNDARY INFLOWS     3.6000E+03 0.0000E+00 3.6000E+03
 BOUNDARY OUTFLOWS    3.6000E+03 1.4762E-21 3.6000E+03
                      Check      Initial    Boundary F 
                                            low        
 CONCENTRATION                           
 SWT_Normal           1.0000E+00 0.0000E+00 1.0000E+00
 
  18.75% Completed


 DUMP OF INTERMEDIATE RESULTS IN SELECTED SEGMENTS
  TIME =   0D 18H  0M  0S .
 
 TOTAL MASS IN SYSTEM 3.0214E+03 0.0000E+00 3.0214E+03
 CHANGES BY PROCESSES 0.0000E+00 0.0000E+00 0.0000E+00
 CHANGES BY LOADS     0.0000E+00 0.0000E+00 0.0000E+00
 BOUNDARY INFLOWS     3.6000E+03 0.0000E+00 3.6000E+03
 BOUNDARY OUTFLOWS    3.6000E+03 0.0000E+00 3.6000E+03
                      Check      Initial    Boundary F 
                                            low        
 CONCENTRATION                           
 SWT_Normal           1.0000E+00 0.0000E+00 1.0000E+00
 
  19.79% Completed


 DUMP OF INTERMEDIATE RESULTS IN SELECTED SEGMENTS
  TIME =   0D 19H  0M  0S .
 
 TOTAL MASS IN SYSTEM 3.0214E+03 0.0000E+00 3.0214E+03
 CHANGES BY PROCESSES 0.0000E+00 0.0000E+00 0.0000E+00
 CHANGES BY LOADS     0.0000E+00 0.0000E+00 0.0000E+00
 BOUNDARY INFLOWS     3.6000E+03 0.0000E+00 3.6000E+03
 BOUNDARY OUTFLOWS    3.6000E+03 0.0000E+00 3.6000E+03
                      Check      Initial    Boundary F 
                                            low        
 CONCENTRATION                           
 SWT_Normal           1.0000E+00 0.0000E+00 1.0000E+00
 
1
                                             Fraction calculation Sobek-WQ           
                                                                                     
                                                                                     
                                             T0: 2012.01.01 00:00:00  (scu=       1s)
  20.83% Completed


 DUMP OF INTERMEDIATE RESULTS IN SELECTED SEGMENTS
  TIME =   0D 20H  0M  0S .
 
 TOTAL MASS IN SYSTEM 3.0214E+03 0.0000E+00 3.0214E+03
 CHANGES BY PROCESSES 0.0000E+00 0.0000E+00 0.0000E+00
 CHANGES BY LOADS     0.0000E+00 0.0000E+00 0.0000E+00
 BOUNDARY INFLOWS     3.6000E+03 0.0000E+00 3.6000E+03
 BOUNDARY OUTFLOWS    3.6000E+03 0.0000E+00 3.6000E+03
                      Check      Initial    Boundary F 
                                            low        
 CONCENTRATION                           
 SWT_Normal           1.0000E+00 0.0000E+00 1.0000E+00
 
  21.88% Completed


 DUMP OF INTERMEDIATE RESULTS IN SELECTED SEGMENTS
  TIME =   0D 21H  0M  0S .
 
 TOTAL MASS IN SYSTEM 3.0214E+03 0.0000E+00 3.0214E+03
 CHANGES BY PROCESSES 0.0000E+00 0.0000E+00 0.0000E+00
 CHANGES BY LOADS     0.0000E+00 0.0000E+00 0.0000E+00
 BOUNDARY INFLOWS     3.6000E+03 0.0000E+00 3.6000E+03
 BOUNDARY OUTFLOWS    3.6000E+03 0.0000E+00 3.6000E+03
                      Check      Initial    Boundary F 
                                            low        
 CONCENTRATION                           
 SWT_Normal           1.0000E+00 0.0000E+00 1.0000E+00
 
  22.92% Completed


 DUMP OF INTERMEDIATE RESULTS IN SELECTED SEGMENTS
  TIME =   0D 22H  0M  0S .
 
 TOTAL MASS IN SYSTEM 3.0214E+03 0.0000E+00 3.0214E+03
 CHANGES BY PROCESSES 0.0000E+00 0.0000E+00 0.0000E+00
 CHANGES BY LOADS     0.0000E+00 0.0000E+00 0.0000E+00
 BOUNDARY INFLOWS     3.6000E+03 0.0000E+00 3.6000E+03
 BOUNDARY OUTFLOWS    3.6000E+03 0.0000E+00 3.6000E+03
                      Check      Initial    Boundary F 
                                            low        
 CONCENTRATION                           
 SWT_Normal           1.0000E+00 0.0000E+00 1.0000E+00
 
  23.96% Completed


 DUMP OF INTERMEDIATE RESULTS IN SELECTED SEGMENTS
  TIME =   0D 23H  0M  0S .
 
 TOTAL MASS IN SYSTEM 3.0214E+03 0.0000E+00 3.0214E+03
 CHANGES BY PROCESSES 0.0000E+00 0.0000E+00 0.0000E+00
 CHANGES BY LOADS     0.0000E+00 0.0000E+00 0.0000E+00
 BOUNDARY INFLOWS     3.6000E+03 0.0000E+00 3.6000E+03
 BOUNDARY OUTFLOWS    3.6000E+03 0.0000E+00 3.6000E+03
                      Check      Initial    Boundary F 
                                            low        
 CONCENTRATION                           
 SWT_Normal           1.0000E+00 0.0000E+00 1.0000E+00
 
1
                                             Fraction calculation Sobek-WQ           
                                                                                     
                                                                                     
                                             T0: 2012.01.01 00:00:00  (scu=       1s)
  25.00% Completed


 DUMP OF INTERMEDIATE RESULTS IN SELECTED SEGMENTS
  TIME =   1D  0H  0M  0S .
 
 TOTAL MASS IN SYSTEM 3.0214E+03 0.0000E+00 3.0214E+03
 CHANGES BY PROCESSES 0.0000E+00 0.0000E+00 0.0000E+00
 CHANGES BY LOADS     0.0000E+00 0.0000E+00 0.0000E+00
 BOUNDARY INFLOWS     3.6000E+03 0.0000E+00 3.6000E+03
 BOUNDARY OUTFLOWS    3.6000E+03 0.0000E+00 3.6000E+03
                      Check      Initial    Boundary F 
                                            low        
 CONCENTRATION                           
 SWT_Normal           1.0000E+00 0.0000E+00 1.0000E+00
 
  26.04% Completed


 DUMP OF INTERMEDIATE RESULTS IN SELECTED SEGMENTS
  TIME =   1D  1H  0M  0S .
 
 TOTAL MASS IN SYSTEM 3.0214E+03 0.0000E+00 3.0214E+03
 CHANGES BY PROCESSES 0.0000E+00 0.0000E+00 0.0000E+00
 CHANGES BY LOADS     0.0000E+00 0.0000E+00 0.0000E+00
 BOUNDARY INFLOWS     3.6000E+03 0.0000E+00 3.6000E+03
 BOUNDARY OUTFLOWS    3.6000E+03 0.0000E+00 3.6000E+03
                      Check      Initial    Boundary F 
                                            low        
 CONCENTRATION                           
 SWT_Normal           1.0000E+00 0.0000E+00 1.0000E+00
 
  27.08% Completed


 DUMP OF INTERMEDIATE RESULTS IN SELECTED SEGMENTS
  TIME =   1D  2H  0M  0S .
 
 TOTAL MASS IN SYSTEM 3.0214E+03 0.0000E+00 3.0214E+03
 CHANGES BY PROCESSES 0.0000E+00 0.0000E+00 0.0000E+00
 CHANGES BY LOADS     0.0000E+00 0.0000E+00 0.0000E+00
 BOUNDARY INFLOWS     3.6000E+03 0.0000E+00 3.6000E+03
 BOUNDARY OUTFLOWS    3.6000E+03 0.0000E+00 3.6000E+03
                      Check      Initial    Boundary F 
                                            low        
 CONCENTRATION                           
 SWT_Normal           1.0000E+00 0.0000E+00 1.0000E+00
 
  28.12% Completed


 DUMP OF INTERMEDIATE RESULTS IN SELECTED SEGMENTS
  TIME =   1D  3H  0M  0S .
 
 TOTAL MASS IN SYSTEM 3.0214E+03 0.0000E+00 3.0214E+03
 CHANGES BY PROCESSES 0.0000E+00 0.0000E+00 0.0000E+00
 CHANGES BY LOADS     0.0000E+00 0.0000E+00 0.0000E+00
 BOUNDARY INFLOWS     3.6000E+03 0.0000E+00 3.6000E+03
 BOUNDARY OUTFLOWS    3.6000E+03 0.0000E+00 3.6000E+03
                      Check      Initial    Boundary F 
                                            low        
 CONCENTRATION                           
 SWT_Normal           1.0000E+00 0.0000E+00 1.0000E+00
 
1
                                             Fraction calculation Sobek-WQ           
                                                                                     
                                                                                     
                                             T0: 2012.01.01 00:00:00  (scu=       1s)
  29.17% Completed


 DUMP OF INTERMEDIATE RESULTS IN SELECTED SEGMENTS
  TIME =   1D  4H  0M  0S .
 
 TOTAL MASS IN SYSTEM 3.0214E+03 0.0000E+00 3.0214E+03
 CHANGES BY PROCESSES 0.0000E+00 0.0000E+00 0.0000E+00
 CHANGES BY LOADS     0.0000E+00 0.0000E+00 0.0000E+00
 BOUNDARY INFLOWS     3.6000E+03 0.0000E+00 3.6000E+03
 BOUNDARY OUTFLOWS    3.6000E+03 0.0000E+00 3.6000E+03
                      Check      Initial    Boundary F 
                                            low        
 CONCENTRATION                           
 SWT_Normal           1.0000E+00 0.0000E+00 1.0000E+00
 
  30.21% Completed


 DUMP OF INTERMEDIATE RESULTS IN SELECTED SEGMENTS
  TIME =   1D  5H  0M  0S .
 
 TOTAL MASS IN SYSTEM 3.0214E+03 0.0000E+00 3.0214E+03
 CHANGES BY PROCESSES 0.0000E+00 0.0000E+00 0.0000E+00
 CHANGES BY LOADS     0.0000E+00 0.0000E+00 0.0000E+00
 BOUNDARY INFLOWS     3.6000E+03 0.0000E+00 3.6000E+03
 BOUNDARY OUTFLOWS    3.6000E+03 0.0000E+00 3.6000E+03
                      Check      Initial    Boundary F 
                                            low        
 CONCENTRATION                           
 SWT_Normal           1.0000E+00 0.0000E+00 1.0000E+00
 
  31.25% Completed


 DUMP OF INTERMEDIATE RESULTS IN SELECTED SEGMENTS
  TIME =   1D  6H  0M  0S .
 
 TOTAL MASS IN SYSTEM 3.0214E+03 0.0000E+00 3.0214E+03
 CHANGES BY PROCESSES 0.0000E+00 0.0000E+00 0.0000E+00
 CHANGES BY LOADS     0.0000E+00 0.0000E+00 0.0000E+00
 BOUNDARY INFLOWS     3.6000E+03 0.0000E+00 3.6000E+03
 BOUNDARY OUTFLOWS    3.6000E+03 0.0000E+00 3.6000E+03
                      Check      Initial    Boundary F 
                                            low        
 CONCENTRATION                           
 SWT_Normal           1.0000E+00 0.0000E+00 1.0000E+00
 
  32.29% Completed


 DUMP OF INTERMEDIATE RESULTS IN SELECTED SEGMENTS
  TIME =   1D  7H  0M  0S .
 
 TOTAL MASS IN SYSTEM 3.0214E+03 0.0000E+00 3.0214E+03
 CHANGES BY PROCESSES 0.0000E+00 0.0000E+00 0.0000E+00
 CHANGES BY LOADS     0.0000E+00 0.0000E+00 0.0000E+00
 BOUNDARY INFLOWS     3.6000E+03 0.0000E+00 3.6000E+03
 BOUNDARY OUTFLOWS    3.6000E+03 0.0000E+00 3.6000E+03
                      Check      Initial    Boundary F 
                                            low        
 CONCENTRATION                           
 SWT_Normal           1.0000E+00 0.0000E+00 1.0000E+00
 
1
                                             Fraction calculation Sobek-WQ           
                                                                                     
                                                                                     
                                             T0: 2012.01.01 00:00:00  (scu=       1s)
  33.33% Completed


 DUMP OF INTERMEDIATE RESULTS IN SELECTED SEGMENTS
  TIME =   1D  8H  0M  0S .
 
 TOTAL MASS IN SYSTEM 3.0214E+03 0.0000E+00 3.0214E+03
 CHANGES BY PROCESSES 0.0000E+00 0.0000E+00 0.0000E+00
 CHANGES BY LOADS     0.0000E+00 0.0000E+00 0.0000E+00
 BOUNDARY INFLOWS     3.6000E+03 0.0000E+00 3.6000E+03
 BOUNDARY OUTFLOWS    3.6000E+03 0.0000E+00 3.6000E+03
                      Check      Initial    Boundary F 
                                            low        
 CONCENTRATION                           
 SWT_Normal           1.0000E+00 0.0000E+00 1.0000E+00
 
  34.38% Completed


 DUMP OF INTERMEDIATE RESULTS IN SELECTED SEGMENTS
  TIME =   1D  9H  0M  0S .
 
 TOTAL MASS IN SYSTEM 3.0214E+03 0.0000E+00 3.0214E+03
 CHANGES BY PROCESSES 0.0000E+00 0.0000E+00 0.0000E+00
 CHANGES BY LOADS     0.0000E+00 0.0000E+00 0.0000E+00
 BOUNDARY INFLOWS     3.6000E+03 0.0000E+00 3.6000E+03
 BOUNDARY OUTFLOWS    3.6000E+03 0.0000E+00 3.6000E+03
                      Check      Initial    Boundary F 
                                            low        
 CONCENTRATION                           
 SWT_Normal           1.0000E+00 0.0000E+00 1.0000E+00
 
  35.42% Completed


 DUMP OF INTERMEDIATE RESULTS IN SELECTED SEGMENTS
  TIME =   1D 10H  0M  0S .
 
 TOTAL MASS IN SYSTEM 3.0214E+03 0.0000E+00 3.0214E+03
 CHANGES BY PROCESSES 0.0000E+00 0.0000E+00 0.0000E+00
 CHANGES BY LOADS     0.0000E+00 0.0000E+00 0.0000E+00
 BOUNDARY INFLOWS     3.6000E+03 0.0000E+00 3.6000E+03
 BOUNDARY OUTFLOWS    3.6000E+03 0.0000E+00 3.6000E+03
                      Check      Initial    Boundary F 
                                            low        
 CONCENTRATION                           
 SWT_Normal           1.0000E+00 0.0000E+00 1.0000E+00
 
  36.46% Completed


 DUMP OF INTERMEDIATE RESULTS IN SELECTED SEGMENTS
  TIME =   1D 11H  0M  0S .
 
 TOTAL MASS IN SYSTEM 3.0214E+03 0.0000E+00 3.0214E+03
 CHANGES BY PROCESSES 0.0000E+00 0.0000E+00 0.0000E+00
 CHANGES BY LOADS     0.0000E+00 0.0000E+00 0.0000E+00
 BOUNDARY INFLOWS     3.6000E+03 0.0000E+00 3.6000E+03
 BOUNDARY OUTFLOWS    3.6000E+03 0.0000E+00 3.6000E+03
                      Check      Initial    Boundary F 
                                            low        
 CONCENTRATION                           
 SWT_Normal           1.0000E+00 0.0000E+00 1.0000E+00
 
1
                                             Fraction calculation Sobek-WQ           
                                                                                     
                                                                                     
                                             T0: 2012.01.01 00:00:00  (scu=       1s)
  37.50% Completed


 DUMP OF INTERMEDIATE RESULTS IN SELECTED SEGMENTS
  TIME =   1D 12H  0M  0S .
 
 TOTAL MASS IN SYSTEM 3.0214E+03 0.0000E+00 3.0214E+03
 CHANGES BY PROCESSES 0.0000E+00 0.0000E+00 0.0000E+00
 CHANGES BY LOADS     0.0000E+00 0.0000E+00 0.0000E+00
 BOUNDARY INFLOWS     3.6000E+03 0.0000E+00 3.6000E+03
 BOUNDARY OUTFLOWS    3.6000E+03 0.0000E+00 3.6000E+03
                      Check      Initial    Boundary F 
                                            low        
 CONCENTRATION                           
 SWT_Normal           1.0000E+00 0.0000E+00 1.0000E+00
 
  38.54% Completed


 DUMP OF INTERMEDIATE RESULTS IN SELECTED SEGMENTS
  TIME =   1D 13H  0M  0S .
 
 TOTAL MASS IN SYSTEM 3.0214E+03 0.0000E+00 3.0214E+03
 CHANGES BY PROCESSES 0.0000E+00 0.0000E+00 0.0000E+00
 CHANGES BY LOADS     0.0000E+00 0.0000E+00 0.0000E+00
 BOUNDARY INFLOWS     3.6000E+03 0.0000E+00 3.6000E+03
 BOUNDARY OUTFLOWS    3.6000E+03 0.0000E+00 3.6000E+03
                      Check      Initial    Boundary F 
                                            low        
 CONCENTRATION                           
 SWT_Normal           1.0000E+00 0.0000E+00 1.0000E+00
 
  39.58% Completed


 DUMP OF INTERMEDIATE RESULTS IN SELECTED SEGMENTS
  TIME =   1D 14H  0M  0S .
 
 TOTAL MASS IN SYSTEM 3.0214E+03 0.0000E+00 3.0214E+03
 CHANGES BY PROCESSES 0.0000E+00 0.0000E+00 0.0000E+00
 CHANGES BY LOADS     0.0000E+00 0.0000E+00 0.0000E+00
 BOUNDARY INFLOWS     3.6000E+03 0.0000E+00 3.6000E+03
 BOUNDARY OUTFLOWS    3.6000E+03 0.0000E+00 3.6000E+03
                      Check      Initial    Boundary F 
                                            low        
 CONCENTRATION                           
 SWT_Normal           1.0000E+00 0.0000E+00 1.0000E+00
 
  40.62% Completed


 DUMP OF INTERMEDIATE RESULTS IN SELECTED SEGMENTS
  TIME =   1D 15H  0M  0S .
 
 TOTAL MASS IN SYSTEM 3.0214E+03 0.0000E+00 3.0214E+03
 CHANGES BY PROCESSES 0.0000E+00 0.0000E+00 0.0000E+00
 CHANGES BY LOADS     0.0000E+00 0.0000E+00 0.0000E+00
 BOUNDARY INFLOWS     3.6000E+03 0.0000E+00 3.6000E+03
 BOUNDARY OUTFLOWS    3.6000E+03 0.0000E+00 3.6000E+03
                      Check      Initial    Boundary F 
                                            low        
 CONCENTRATION                           
 SWT_Normal           1.0000E+00 0.0000E+00 1.0000E+00
 
1
                                             Fraction calculation Sobek-WQ           
                                                                                     
                                                                                     
                                             T0: 2012.01.01 00:00:00  (scu=       1s)
  41.67% Completed


 DUMP OF INTERMEDIATE RESULTS IN SELECTED SEGMENTS
  TIME =   1D 16H  0M  0S .
 
 TOTAL MASS IN SYSTEM 3.0214E+03 0.0000E+00 3.0214E+03
 CHANGES BY PROCESSES 0.0000E+00 0.0000E+00 0.0000E+00
 CHANGES BY LOADS     0.0000E+00 0.0000E+00 0.0000E+00
 BOUNDARY INFLOWS     3.6000E+03 0.0000E+00 3.6000E+03
 BOUNDARY OUTFLOWS    3.6000E+03 0.0000E+00 3.6000E+03
                      Check      Initial    Boundary F 
                                            low        
 CONCENTRATION                           
 SWT_Normal           1.0000E+00 0.0000E+00 1.0000E+00
 
  42.71% Completed


 DUMP OF INTERMEDIATE RESULTS IN SELECTED SEGMENTS
  TIME =   1D 17H  0M  0S .
 
 TOTAL MASS IN SYSTEM 3.0214E+03 0.0000E+00 3.0214E+03
 CHANGES BY PROCESSES 0.0000E+00 0.0000E+00 0.0000E+00
 CHANGES BY LOADS     0.0000E+00 0.0000E+00 0.0000E+00
 BOUNDARY INFLOWS     3.6000E+03 0.0000E+00 3.6000E+03
 BOUNDARY OUTFLOWS    3.6000E+03 0.0000E+00 3.6000E+03
                      Check      Initial    Boundary F 
                                            low        
 CONCENTRATION                           
 SWT_Normal           1.0000E+00 0.0000E+00 1.0000E+00
 
  43.75% Completed


 DUMP OF INTERMEDIATE RESULTS IN SELECTED SEGMENTS
  TIME =   1D 18H  0M  0S .
 
 TOTAL MASS IN SYSTEM 3.0214E+03 0.0000E+00 3.0214E+03
 CHANGES BY PROCESSES 0.0000E+00 0.0000E+00 0.0000E+00
 CHANGES BY LOADS     0.0000E+00 0.0000E+00 0.0000E+00
 BOUNDARY INFLOWS     3.6000E+03 0.0000E+00 3.6000E+03
 BOUNDARY OUTFLOWS    3.6000E+03 0.0000E+00 3.6000E+03
                      Check      Initial    Boundary F 
                                            low        
 CONCENTRATION                           
 SWT_Normal           1.0000E+00 0.0000E+00 1.0000E+00
 
  44.79% Completed


 DUMP OF INTERMEDIATE RESULTS IN SELECTED SEGMENTS
  TIME =   1D 19H  0M  0S .
 
 TOTAL MASS IN SYSTEM 3.0214E+03 0.0000E+00 3.0214E+03
 CHANGES BY PROCESSES 0.0000E+00 0.0000E+00 0.0000E+00
 CHANGES BY LOADS     0.0000E+00 0.0000E+00 0.0000E+00
 BOUNDARY INFLOWS     3.6000E+03 0.0000E+00 3.6000E+03
 BOUNDARY OUTFLOWS    3.6000E+03 0.0000E+00 3.6000E+03
                      Check      Initial    Boundary F 
                                            low        
 CONCENTRATION                           
 SWT_Normal           1.0000E+00 0.0000E+00 1.0000E+00
 
1
                                             Fraction calculation Sobek-WQ           
                                                                                     
                                                                                     
                                             T0: 2012.01.01 00:00:00  (scu=       1s)
  45.83% Completed


 DUMP OF INTERMEDIATE RESULTS IN SELECTED SEGMENTS
  TIME =   1D 20H  0M  0S .
 
 TOTAL MASS IN SYSTEM 3.0214E+03 0.0000E+00 3.0214E+03
 CHANGES BY PROCESSES 0.0000E+00 0.0000E+00 0.0000E+00
 CHANGES BY LOADS     0.0000E+00 0.0000E+00 0.0000E+00
 BOUNDARY INFLOWS     3.6000E+03 0.0000E+00 3.6000E+03
 BOUNDARY OUTFLOWS    3.6000E+03 0.0000E+00 3.6000E+03
                      Check      Initial    Boundary F 
                                            low        
 CONCENTRATION                           
 SWT_Normal           1.0000E+00 0.0000E+00 1.0000E+00
 
  46.88% Completed


 DUMP OF INTERMEDIATE RESULTS IN SELECTED SEGMENTS
  TIME =   1D 21H  0M  0S .
 
 TOTAL MASS IN SYSTEM 3.0214E+03 0.0000E+00 3.0214E+03
 CHANGES BY PROCESSES 0.0000E+00 0.0000E+00 0.0000E+00
 CHANGES BY LOADS     0.0000E+00 0.0000E+00 0.0000E+00
 BOUNDARY INFLOWS     3.6000E+03 0.0000E+00 3.6000E+03
 BOUNDARY OUTFLOWS    3.6000E+03 0.0000E+00 3.6000E+03
                      Check      Initial    Boundary F 
                                            low        
 CONCENTRATION                           
 SWT_Normal           1.0000E+00 0.0000E+00 1.0000E+00
 
  47.92% Completed


 DUMP OF INTERMEDIATE RESULTS IN SELECTED SEGMENTS
  TIME =   1D 22H  0M  0S .
 
 TOTAL MASS IN SYSTEM 3.0214E+03 0.0000E+00 3.0214E+03
 CHANGES BY PROCESSES 0.0000E+00 0.0000E+00 0.0000E+00
 CHANGES BY LOADS     0.0000E+00 0.0000E+00 0.0000E+00
 BOUNDARY INFLOWS     3.6000E+03 0.0000E+00 3.6000E+03
 BOUNDARY OUTFLOWS    3.6000E+03 0.0000E+00 3.6000E+03
                      Check      Initial    Boundary F 
                                            low        
 CONCENTRATION                           
 SWT_Normal           1.0000E+00 0.0000E+00 1.0000E+00
 
  48.96% Completed


 DUMP OF INTERMEDIATE RESULTS IN SELECTED SEGMENTS
  TIME =   1D 23H  0M  0S .
 
 TOTAL MASS IN SYSTEM 3.0214E+03 0.0000E+00 3.0214E+03
 CHANGES BY PROCESSES 0.0000E+00 0.0000E+00 0.0000E+00
 CHANGES BY LOADS     0.0000E+00 0.0000E+00 0.0000E+00
 BOUNDARY INFLOWS     3.6000E+03 0.0000E+00 3.6000E+03
 BOUNDARY OUTFLOWS    3.6000E+03 0.0000E+00 3.6000E+03
                      Check      Initial    Boundary F 
                                            low        
 CONCENTRATION                           
 SWT_Normal           1.0000E+00 0.0000E+00 1.0000E+00
 
1
                                             Fraction calculation Sobek-WQ           
                                                                                     
                                                                                     
                                             T0: 2012.01.01 00:00:00  (scu=       1s)
  50.00% Completed


 DUMP OF INTERMEDIATE RESULTS IN SELECTED SEGMENTS
  TIME =   2D  0H  0M  0S .
 
 TOTAL MASS IN SYSTEM 3.0214E+03 0.0000E+00 3.0214E+03
 CHANGES BY PROCESSES 0.0000E+00 0.0000E+00 0.0000E+00
 CHANGES BY LOADS     0.0000E+00 0.0000E+00 0.0000E+00
 BOUNDARY INFLOWS     3.6000E+03 0.0000E+00 3.6000E+03
 BOUNDARY OUTFLOWS    3.6000E+03 0.0000E+00 3.6000E+03
                      Check      Initial    Boundary F 
                                            low        
 CONCENTRATION                           
 SWT_Normal           1.0000E+00 0.0000E+00 1.0000E+00
 
  51.04% Completed


 DUMP OF INTERMEDIATE RESULTS IN SELECTED SEGMENTS
  TIME =   2D  1H  0M  0S .
 
 TOTAL MASS IN SYSTEM 3.0214E+03 0.0000E+00 3.0214E+03
 CHANGES BY PROCESSES 0.0000E+00 0.0000E+00 0.0000E+00
 CHANGES BY LOADS     0.0000E+00 0.0000E+00 0.0000E+00
 BOUNDARY INFLOWS     3.6000E+03 0.0000E+00 3.6000E+03
 BOUNDARY OUTFLOWS    3.6000E+03 0.0000E+00 3.6000E+03
                      Check      Initial    Boundary F 
                                            low        
 CONCENTRATION                           
 SWT_Normal           1.0000E+00 0.0000E+00 1.0000E+00
 
  52.08% Completed


 DUMP OF INTERMEDIATE RESULTS IN SELECTED SEGMENTS
  TIME =   2D  2H  0M  0S .
 
 TOTAL MASS IN SYSTEM 3.0214E+03 0.0000E+00 3.0214E+03
 CHANGES BY PROCESSES 0.0000E+00 0.0000E+00 0.0000E+00
 CHANGES BY LOADS     0.0000E+00 0.0000E+00 0.0000E+00
 BOUNDARY INFLOWS     3.6000E+03 0.0000E+00 3.6000E+03
 BOUNDARY OUTFLOWS    3.6000E+03 0.0000E+00 3.6000E+03
                      Check      Initial    Boundary F 
                                            low        
 CONCENTRATION                           
 SWT_Normal           1.0000E+00 0.0000E+00 1.0000E+00
 
  53.12% Completed


 DUMP OF INTERMEDIATE RESULTS IN SELECTED SEGMENTS
  TIME =   2D  3H  0M  0S .
 
 TOTAL MASS IN SYSTEM 3.0214E+03 0.0000E+00 3.0214E+03
 CHANGES BY PROCESSES 0.0000E+00 0.0000E+00 0.0000E+00
 CHANGES BY LOADS     0.0000E+00 0.0000E+00 0.0000E+00
 BOUNDARY INFLOWS     3.6000E+03 0.0000E+00 3.6000E+03
 BOUNDARY OUTFLOWS    3.6000E+03 0.0000E+00 3.6000E+03
                      Check      Initial    Boundary F 
                                            low        
 CONCENTRATION                           
 SWT_Normal           1.0000E+00 0.0000E+00 1.0000E+00
 
1
                                             Fraction calculation Sobek-WQ           
                                                                                     
                                                                                     
                                             T0: 2012.01.01 00:00:00  (scu=       1s)
  54.17% Completed


 DUMP OF INTERMEDIATE RESULTS IN SELECTED SEGMENTS
  TIME =   2D  4H  0M  0S .
 
 TOTAL MASS IN SYSTEM 3.0214E+03 0.0000E+00 3.0214E+03
 CHANGES BY PROCESSES 0.0000E+00 0.0000E+00 0.0000E+00
 CHANGES BY LOADS     0.0000E+00 0.0000E+00 0.0000E+00
 BOUNDARY INFLOWS     3.6000E+03 0.0000E+00 3.6000E+03
 BOUNDARY OUTFLOWS    3.6000E+03 0.0000E+00 3.6000E+03
                      Check      Initial    Boundary F 
                                            low        
 CONCENTRATION                           
 SWT_Normal           1.0000E+00 0.0000E+00 1.0000E+00
 
  55.21% Completed


 DUMP OF INTERMEDIATE RESULTS IN SELECTED SEGMENTS
  TIME =   2D  5H  0M  0S .
 
 TOTAL MASS IN SYSTEM 3.0214E+03 0.0000E+00 3.0214E+03
 CHANGES BY PROCESSES 0.0000E+00 0.0000E+00 0.0000E+00
 CHANGES BY LOADS     0.0000E+00 0.0000E+00 0.0000E+00
 BOUNDARY INFLOWS     3.6000E+03 0.0000E+00 3.6000E+03
 BOUNDARY OUTFLOWS    3.6000E+03 0.0000E+00 3.6000E+03
                      Check      Initial    Boundary F 
                                            low        
 CONCENTRATION                           
 SWT_Normal           1.0000E+00 0.0000E+00 1.0000E+00
 
  56.25% Completed


 DUMP OF INTERMEDIATE RESULTS IN SELECTED SEGMENTS
  TIME =   2D  6H  0M  0S .
 
 TOTAL MASS IN SYSTEM 3.0214E+03 0.0000E+00 3.0214E+03
 CHANGES BY PROCESSES 0.0000E+00 0.0000E+00 0.0000E+00
 CHANGES BY LOADS     0.0000E+00 0.0000E+00 0.0000E+00
 BOUNDARY INFLOWS     3.6000E+03 0.0000E+00 3.6000E+03
 BOUNDARY OUTFLOWS    3.6000E+03 0.0000E+00 3.6000E+03
                      Check      Initial    Boundary F 
                                            low        
 CONCENTRATION                           
 SWT_Normal           1.0000E+00 0.0000E+00 1.0000E+00
 
  57.29% Completed


 DUMP OF INTERMEDIATE RESULTS IN SELECTED SEGMENTS
  TIME =   2D  7H  0M  0S .
 
 TOTAL MASS IN SYSTEM 3.0214E+03 0.0000E+00 3.0214E+03
 CHANGES BY PROCESSES 0.0000E+00 0.0000E+00 0.0000E+00
 CHANGES BY LOADS     0.0000E+00 0.0000E+00 0.0000E+00
 BOUNDARY INFLOWS     3.6000E+03 0.0000E+00 3.6000E+03
 BOUNDARY OUTFLOWS    3.6000E+03 0.0000E+00 3.6000E+03
                      Check      Initial    Boundary F 
                                            low        
 CONCENTRATION                           
 SWT_Normal           1.0000E+00 0.0000E+00 1.0000E+00
 
1
                                             Fraction calculation Sobek-WQ           
                                                                                     
                                                                                     
                                             T0: 2012.01.01 00:00:00  (scu=       1s)
  58.33% Completed


 DUMP OF INTERMEDIATE RESULTS IN SELECTED SEGMENTS
  TIME =   2D  8H  0M  0S .
 
 TOTAL MASS IN SYSTEM 3.0214E+03 0.0000E+00 3.0214E+03
 CHANGES BY PROCESSES 0.0000E+00 0.0000E+00 0.0000E+00
 CHANGES BY LOADS     0.0000E+00 0.0000E+00 0.0000E+00
 BOUNDARY INFLOWS     3.6000E+03 0.0000E+00 3.6000E+03
 BOUNDARY OUTFLOWS    3.6000E+03 0.0000E+00 3.6000E+03
                      Check      Initial    Boundary F 
                                            low        
 CONCENTRATION                           
 SWT_Normal           1.0000E+00 0.0000E+00 1.0000E+00
 
  59.38% Completed


 DUMP OF INTERMEDIATE RESULTS IN SELECTED SEGMENTS
  TIME =   2D  9H  0M  0S .
 
 TOTAL MASS IN SYSTEM 3.0214E+03 0.0000E+00 3.0214E+03
 CHANGES BY PROCESSES 0.0000E+00 0.0000E+00 0.0000E+00
 CHANGES BY LOADS     0.0000E+00 0.0000E+00 0.0000E+00
 BOUNDARY INFLOWS     3.6000E+03 0.0000E+00 3.6000E+03
 BOUNDARY OUTFLOWS    3.6000E+03 0.0000E+00 3.6000E+03
                      Check      Initial    Boundary F 
                                            low        
 CONCENTRATION                           
 SWT_Normal           1.0000E+00 0.0000E+00 1.0000E+00
 
  60.42% Completed


 DUMP OF INTERMEDIATE RESULTS IN SELECTED SEGMENTS
  TIME =   2D 10H  0M  0S .
 
 TOTAL MASS IN SYSTEM 3.0214E+03 0.0000E+00 3.0214E+03
 CHANGES BY PROCESSES 0.0000E+00 0.0000E+00 0.0000E+00
 CHANGES BY LOADS     0.0000E+00 0.0000E+00 0.0000E+00
 BOUNDARY INFLOWS     3.6000E+03 0.0000E+00 3.6000E+03
 BOUNDARY OUTFLOWS    3.6000E+03 0.0000E+00 3.6000E+03
                      Check      Initial    Boundary F 
                                            low        
 CONCENTRATION                           
 SWT_Normal           1.0000E+00 0.0000E+00 1.0000E+00
 
  61.46% Completed


 DUMP OF INTERMEDIATE RESULTS IN SELECTED SEGMENTS
  TIME =   2D 11H  0M  0S .
 
 TOTAL MASS IN SYSTEM 3.0214E+03 0.0000E+00 3.0214E+03
 CHANGES BY PROCESSES 0.0000E+00 0.0000E+00 0.0000E+00
 CHANGES BY LOADS     0.0000E+00 0.0000E+00 0.0000E+00
 BOUNDARY INFLOWS     3.6000E+03 0.0000E+00 3.6000E+03
 BOUNDARY OUTFLOWS    3.6000E+03 0.0000E+00 3.6000E+03
                      Check      Initial    Boundary F 
                                            low        
 CONCENTRATION                           
 SWT_Normal           1.0000E+00 0.0000E+00 1.0000E+00
 
1
                                             Fraction calculation Sobek-WQ           
                                                                                     
                                                                                     
                                             T0: 2012.01.01 00:00:00  (scu=       1s)
  62.50% Completed


 DUMP OF INTERMEDIATE RESULTS IN SELECTED SEGMENTS
  TIME =   2D 12H  0M  0S .
 
 TOTAL MASS IN SYSTEM 3.0214E+03 0.0000E+00 3.0214E+03
 CHANGES BY PROCESSES 0.0000E+00 0.0000E+00 0.0000E+00
 CHANGES BY LOADS     0.0000E+00 0.0000E+00 0.0000E+00
 BOUNDARY INFLOWS     3.6000E+03 0.0000E+00 3.6000E+03
 BOUNDARY OUTFLOWS    3.6000E+03 0.0000E+00 3.6000E+03
                      Check      Initial    Boundary F 
                                            low        
 CONCENTRATION                           
 SWT_Normal           1.0000E+00 0.0000E+00 1.0000E+00
 
  63.54% Completed


 DUMP OF INTERMEDIATE RESULTS IN SELECTED SEGMENTS
  TIME =   2D 13H  0M  0S .
 
 TOTAL MASS IN SYSTEM 3.0214E+03 0.0000E+00 3.0214E+03
 CHANGES BY PROCESSES 0.0000E+00 0.0000E+00 0.0000E+00
 CHANGES BY LOADS     0.0000E+00 0.0000E+00 0.0000E+00
 BOUNDARY INFLOWS     3.6000E+03 0.0000E+00 3.6000E+03
 BOUNDARY OUTFLOWS    3.6000E+03 0.0000E+00 3.6000E+03
                      Check      Initial    Boundary F 
                                            low        
 CONCENTRATION                           
 SWT_Normal           1.0000E+00 0.0000E+00 1.0000E+00
 
  64.58% Completed


 DUMP OF INTERMEDIATE RESULTS IN SELECTED SEGMENTS
  TIME =   2D 14H  0M  0S .
 
 TOTAL MASS IN SYSTEM 3.0214E+03 0.0000E+00 3.0214E+03
 CHANGES BY PROCESSES 0.0000E+00 0.0000E+00 0.0000E+00
 CHANGES BY LOADS     0.0000E+00 0.0000E+00 0.0000E+00
 BOUNDARY INFLOWS     3.6000E+03 0.0000E+00 3.6000E+03
 BOUNDARY OUTFLOWS    3.6000E+03 0.0000E+00 3.6000E+03
                      Check      Initial    Boundary F 
                                            low        
 CONCENTRATION                           
 SWT_Normal           1.0000E+00 0.0000E+00 1.0000E+00
 
  65.62% Completed


 DUMP OF INTERMEDIATE RESULTS IN SELECTED SEGMENTS
  TIME =   2D 15H  0M  0S .
 
 TOTAL MASS IN SYSTEM 3.0214E+03 0.0000E+00 3.0214E+03
 CHANGES BY PROCESSES 0.0000E+00 0.0000E+00 0.0000E+00
 CHANGES BY LOADS     0.0000E+00 0.0000E+00 0.0000E+00
 BOUNDARY INFLOWS     3.6000E+03 0.0000E+00 3.6000E+03
 BOUNDARY OUTFLOWS    3.6000E+03 0.0000E+00 3.6000E+03
                      Check      Initial    Boundary F 
                                            low        
 CONCENTRATION                           
 SWT_Normal           1.0000E+00 0.0000E+00 1.0000E+00
 
1
                                             Fraction calculation Sobek-WQ           
                                                                                     
                                                                                     
                                             T0: 2012.01.01 00:00:00  (scu=       1s)
  66.67% Completed


 DUMP OF INTERMEDIATE RESULTS IN SELECTED SEGMENTS
  TIME =   2D 16H  0M  0S .
 
 TOTAL MASS IN SYSTEM 3.0214E+03 0.0000E+00 3.0214E+03
 CHANGES BY PROCESSES 0.0000E+00 0.0000E+00 0.0000E+00
 CHANGES BY LOADS     0.0000E+00 0.0000E+00 0.0000E+00
 BOUNDARY INFLOWS     3.6000E+03 0.0000E+00 3.6000E+03
 BOUNDARY OUTFLOWS    3.6000E+03 0.0000E+00 3.6000E+03
                      Check      Initial    Boundary F 
                                            low        
 CONCENTRATION                           
 SWT_Normal           1.0000E+00 0.0000E+00 1.0000E+00
 
  67.71% Completed


 DUMP OF INTERMEDIATE RESULTS IN SELECTED SEGMENTS
  TIME =   2D 17H  0M  0S .
 
 TOTAL MASS IN SYSTEM 3.0214E+03 0.0000E+00 3.0214E+03
 CHANGES BY PROCESSES 0.0000E+00 0.0000E+00 0.0000E+00
 CHANGES BY LOADS     0.0000E+00 0.0000E+00 0.0000E+00
 BOUNDARY INFLOWS     3.6000E+03 0.0000E+00 3.6000E+03
 BOUNDARY OUTFLOWS    3.6000E+03 0.0000E+00 3.6000E+03
                      Check      Initial    Boundary F 
                                            low        
 CONCENTRATION                           
 SWT_Normal           1.0000E+00 0.0000E+00 1.0000E+00
 
  68.75% Completed


 DUMP OF INTERMEDIATE RESULTS IN SELECTED SEGMENTS
  TIME =   2D 18H  0M  0S .
 
 TOTAL MASS IN SYSTEM 3.0214E+03 0.0000E+00 3.0214E+03
 CHANGES BY PROCESSES 0.0000E+00 0.0000E+00 0.0000E+00
 CHANGES BY LOADS     0.0000E+00 0.0000E+00 0.0000E+00
 BOUNDARY INFLOWS     3.6000E+03 0.0000E+00 3.6000E+03
 BOUNDARY OUTFLOWS    3.6000E+03 0.0000E+00 3.6000E+03
                      Check      Initial    Boundary F 
                                            low        
 CONCENTRATION                           
 SWT_Normal           1.0000E+00 0.0000E+00 1.0000E+00
 
  69.79% Completed


 DUMP OF INTERMEDIATE RESULTS IN SELECTED SEGMENTS
  TIME =   2D 19H  0M  0S .
 
 TOTAL MASS IN SYSTEM 3.0214E+03 0.0000E+00 3.0214E+03
 CHANGES BY PROCESSES 0.0000E+00 0.0000E+00 0.0000E+00
 CHANGES BY LOADS     0.0000E+00 0.0000E+00 0.0000E+00
 BOUNDARY INFLOWS     3.6000E+03 0.0000E+00 3.6000E+03
 BOUNDARY OUTFLOWS    3.6000E+03 0.0000E+00 3.6000E+03
                      Check      Initial    Boundary F 
                                            low        
 CONCENTRATION                           
 SWT_Normal           1.0000E+00 0.0000E+00 1.0000E+00
 
1
                                             Fraction calculation Sobek-WQ           
                                                                                     
                                                                                     
                                             T0: 2012.01.01 00:00:00  (scu=       1s)
  70.83% Completed


 DUMP OF INTERMEDIATE RESULTS IN SELECTED SEGMENTS
  TIME =   2D 20H  0M  0S .
 
 TOTAL MASS IN SYSTEM 3.0214E+03 0.0000E+00 3.0214E+03
 CHANGES BY PROCESSES 0.0000E+00 0.0000E+00 0.0000E+00
 CHANGES BY LOADS     0.0000E+00 0.0000E+00 0.0000E+00
 BOUNDARY INFLOWS     3.6000E+03 0.0000E+00 3.6000E+03
 BOUNDARY OUTFLOWS    3.6000E+03 0.0000E+00 3.6000E+03
                      Check      Initial    Boundary F 
                                            low        
 CONCENTRATION                           
 SWT_Normal           1.0000E+00 0.0000E+00 1.0000E+00
 
  71.88% Completed


 DUMP OF INTERMEDIATE RESULTS IN SELECTED SEGMENTS
  TIME =   2D 21H  0M  0S .
 
 TOTAL MASS IN SYSTEM 3.0214E+03 0.0000E+00 3.0214E+03
 CHANGES BY PROCESSES 0.0000E+00 0.0000E+00 0.0000E+00
 CHANGES BY LOADS     0.0000E+00 0.0000E+00 0.0000E+00
 BOUNDARY INFLOWS     3.6000E+03 0.0000E+00 3.6000E+03
 BOUNDARY OUTFLOWS    3.6000E+03 0.0000E+00 3.6000E+03
                      Check      Initial    Boundary F 
                                            low        
 CONCENTRATION                           
 SWT_Normal           1.0000E+00 0.0000E+00 1.0000E+00
 
  72.92% Completed


 DUMP OF INTERMEDIATE RESULTS IN SELECTED SEGMENTS
  TIME =   2D 22H  0M  0S .
 
 TOTAL MASS IN SYSTEM 3.0214E+03 0.0000E+00 3.0214E+03
 CHANGES BY PROCESSES 0.0000E+00 0.0000E+00 0.0000E+00
 CHANGES BY LOADS     0.0000E+00 0.0000E+00 0.0000E+00
 BOUNDARY INFLOWS     3.6000E+03 0.0000E+00 3.6000E+03
 BOUNDARY OUTFLOWS    3.6000E+03 0.0000E+00 3.6000E+03
                      Check      Initial    Boundary F 
                                            low        
 CONCENTRATION                           
 SWT_Normal           1.0000E+00 0.0000E+00 1.0000E+00
 
  73.96% Completed


 DUMP OF INTERMEDIATE RESULTS IN SELECTED SEGMENTS
  TIME =   2D 23H  0M  0S .
 
 TOTAL MASS IN SYSTEM 3.0214E+03 0.0000E+00 3.0214E+03
 CHANGES BY PROCESSES 0.0000E+00 0.0000E+00 0.0000E+00
 CHANGES BY LOADS     0.0000E+00 0.0000E+00 0.0000E+00
 BOUNDARY INFLOWS     3.6000E+03 0.0000E+00 3.6000E+03
 BOUNDARY OUTFLOWS    3.6000E+03 0.0000E+00 3.6000E+03
                      Check      Initial    Boundary F 
                                            low        
 CONCENTRATION                           
 SWT_Normal           1.0000E+00 0.0000E+00 1.0000E+00
 
1
                                             Fraction calculation Sobek-WQ           
                                                                                     
                                                                                     
                                             T0: 2012.01.01 00:00:00  (scu=       1s)
  75.00% Completed


 DUMP OF INTERMEDIATE RESULTS IN SELECTED SEGMENTS
  TIME =   3D  0H  0M  0S .
 
 TOTAL MASS IN SYSTEM 3.0214E+03 0.0000E+00 3.0214E+03
 CHANGES BY PROCESSES 0.0000E+00 0.0000E+00 0.0000E+00
 CHANGES BY LOADS     0.0000E+00 0.0000E+00 0.0000E+00
 BOUNDARY INFLOWS     3.6000E+03 0.0000E+00 3.6000E+03
 BOUNDARY OUTFLOWS    3.6000E+03 0.0000E+00 3.6000E+03
                      Check      Initial    Boundary F 
                                            low        
 CONCENTRATION                           
 SWT_Normal           1.0000E+00 0.0000E+00 1.0000E+00
 
  76.04% Completed


 DUMP OF INTERMEDIATE RESULTS IN SELECTED SEGMENTS
  TIME =   3D  1H  0M  0S .
 
 TOTAL MASS IN SYSTEM 3.0214E+03 0.0000E+00 3.0214E+03
 CHANGES BY PROCESSES 0.0000E+00 0.0000E+00 0.0000E+00
 CHANGES BY LOADS     0.0000E+00 0.0000E+00 0.0000E+00
 BOUNDARY INFLOWS     3.6000E+03 0.0000E+00 3.6000E+03
 BOUNDARY OUTFLOWS    3.6000E+03 0.0000E+00 3.6000E+03
                      Check      Initial    Boundary F 
                                            low        
 CONCENTRATION                           
 SWT_Normal           1.0000E+00 0.0000E+00 1.0000E+00
 
  77.08% Completed


 DUMP OF INTERMEDIATE RESULTS IN SELECTED SEGMENTS
  TIME =   3D  2H  0M  0S .
 
 TOTAL MASS IN SYSTEM 3.0214E+03 0.0000E+00 3.0214E+03
 CHANGES BY PROCESSES 0.0000E+00 0.0000E+00 0.0000E+00
 CHANGES BY LOADS     0.0000E+00 0.0000E+00 0.0000E+00
 BOUNDARY INFLOWS     3.6000E+03 0.0000E+00 3.6000E+03
 BOUNDARY OUTFLOWS    3.6000E+03 0.0000E+00 3.6000E+03
                      Check      Initial    Boundary F 
                                            low        
 CONCENTRATION                           
 SWT_Normal           1.0000E+00 0.0000E+00 1.0000E+00
 
  78.12% Completed


 DUMP OF INTERMEDIATE RESULTS IN SELECTED SEGMENTS
  TIME =   3D  3H  0M  0S .
 
 TOTAL MASS IN SYSTEM 3.0214E+03 0.0000E+00 3.0214E+03
 CHANGES BY PROCESSES 0.0000E+00 0.0000E+00 0.0000E+00
 CHANGES BY LOADS     0.0000E+00 0.0000E+00 0.0000E+00
 BOUNDARY INFLOWS     3.6000E+03 0.0000E+00 3.6000E+03
 BOUNDARY OUTFLOWS    3.6000E+03 0.0000E+00 3.6000E+03
                      Check      Initial    Boundary F 
                                            low        
 CONCENTRATION                           
 SWT_Normal           1.0000E+00 0.0000E+00 1.0000E+00
 
1
                                             Fraction calculation Sobek-WQ           
                                                                                     
                                                                                     
                                             T0: 2012.01.01 00:00:00  (scu=       1s)
  79.17% Completed


 DUMP OF INTERMEDIATE RESULTS IN SELECTED SEGMENTS
  TIME =   3D  4H  0M  0S .
 
 TOTAL MASS IN SYSTEM 3.0214E+03 0.0000E+00 3.0214E+03
 CHANGES BY PROCESSES 0.0000E+00 0.0000E+00 0.0000E+00
 CHANGES BY LOADS     0.0000E+00 0.0000E+00 0.0000E+00
 BOUNDARY INFLOWS     3.6000E+03 0.0000E+00 3.6000E+03
 BOUNDARY OUTFLOWS    3.6000E+03 0.0000E+00 3.6000E+03
                      Check      Initial    Boundary F 
                                            low        
 CONCENTRATION                           
 SWT_Normal           1.0000E+00 0.0000E+00 1.0000E+00
 
  80.21% Completed


 DUMP OF INTERMEDIATE RESULTS IN SELECTED SEGMENTS
  TIME =   3D  5H  0M  0S .
 
 TOTAL MASS IN SYSTEM 3.0214E+03 0.0000E+00 3.0214E+03
 CHANGES BY PROCESSES 0.0000E+00 0.0000E+00 0.0000E+00
 CHANGES BY LOADS     0.0000E+00 0.0000E+00 0.0000E+00
 BOUNDARY INFLOWS     3.6000E+03 0.0000E+00 3.6000E+03
 BOUNDARY OUTFLOWS    3.6000E+03 0.0000E+00 3.6000E+03
                      Check      Initial    Boundary F 
                                            low        
 CONCENTRATION                           
 SWT_Normal           1.0000E+00 0.0000E+00 1.0000E+00
 
  81.25% Completed


 DUMP OF INTERMEDIATE RESULTS IN SELECTED SEGMENTS
  TIME =   3D  6H  0M  0S .
 
 TOTAL MASS IN SYSTEM 3.0214E+03 0.0000E+00 3.0214E+03
 CHANGES BY PROCESSES 0.0000E+00 0.0000E+00 0.0000E+00
 CHANGES BY LOADS     0.0000E+00 0.0000E+00 0.0000E+00
 BOUNDARY INFLOWS     3.6000E+03 0.0000E+00 3.6000E+03
 BOUNDARY OUTFLOWS    3.6000E+03 0.0000E+00 3.6000E+03
                      Check      Initial    Boundary F 
                                            low        
 CONCENTRATION                           
 SWT_Normal           1.0000E+00 0.0000E+00 1.0000E+00
 
  82.29% Completed


 DUMP OF INTERMEDIATE RESULTS IN SELECTED SEGMENTS
  TIME =   3D  7H  0M  0S .
 
 TOTAL MASS IN SYSTEM 3.0214E+03 0.0000E+00 3.0214E+03
 CHANGES BY PROCESSES 0.0000E+00 0.0000E+00 0.0000E+00
 CHANGES BY LOADS     0.0000E+00 0.0000E+00 0.0000E+00
 BOUNDARY INFLOWS     3.6000E+03 0.0000E+00 3.6000E+03
 BOUNDARY OUTFLOWS    3.6000E+03 0.0000E+00 3.6000E+03
                      Check      Initial    Boundary F 
                                            low        
 CONCENTRATION                           
 SWT_Normal           1.0000E+00 0.0000E+00 1.0000E+00
 
1
                                             Fraction calculation Sobek-WQ           
                                                                                     
                                                                                     
                                             T0: 2012.01.01 00:00:00  (scu=       1s)
  83.33% Completed


 DUMP OF INTERMEDIATE RESULTS IN SELECTED SEGMENTS
  TIME =   3D  8H  0M  0S .
 
 TOTAL MASS IN SYSTEM 3.0214E+03 0.0000E+00 3.0214E+03
 CHANGES BY PROCESSES 0.0000E+00 0.0000E+00 0.0000E+00
 CHANGES BY LOADS     0.0000E+00 0.0000E+00 0.0000E+00
 BOUNDARY INFLOWS     3.6000E+03 0.0000E+00 3.6000E+03
 BOUNDARY OUTFLOWS    3.6000E+03 0.0000E+00 3.6000E+03
                      Check      Initial    Boundary F 
                                            low        
 CONCENTRATION                           
 SWT_Normal           1.0000E+00 0.0000E+00 1.0000E+00
 
  84.38% Completed


 DUMP OF INTERMEDIATE RESULTS IN SELECTED SEGMENTS
  TIME =   3D  9H  0M  0S .
 
 TOTAL MASS IN SYSTEM 3.0214E+03 0.0000E+00 3.0214E+03
 CHANGES BY PROCESSES 0.0000E+00 0.0000E+00 0.0000E+00
 CHANGES BY LOADS     0.0000E+00 0.0000E+00 0.0000E+00
 BOUNDARY INFLOWS     3.6000E+03 0.0000E+00 3.6000E+03
 BOUNDARY OUTFLOWS    3.6000E+03 0.0000E+00 3.6000E+03
                      Check      Initial    Boundary F 
                                            low        
 CONCENTRATION                           
 SWT_Normal           1.0000E+00 0.0000E+00 1.0000E+00
 
  85.42% Completed


 DUMP OF INTERMEDIATE RESULTS IN SELECTED SEGMENTS
  TIME =   3D 10H  0M  0S .
 
 TOTAL MASS IN SYSTEM 3.0214E+03 0.0000E+00 3.0214E+03
 CHANGES BY PROCESSES 0.0000E+00 0.0000E+00 0.0000E+00
 CHANGES BY LOADS     0.0000E+00 0.0000E+00 0.0000E+00
 BOUNDARY INFLOWS     3.6000E+03 0.0000E+00 3.6000E+03
 BOUNDARY OUTFLOWS    3.6000E+03 0.0000E+00 3.6000E+03
                      Check      Initial    Boundary F 
                                            low        
 CONCENTRATION                           
 SWT_Normal           1.0000E+00 0.0000E+00 1.0000E+00
 
  86.46% Completed


 DUMP OF INTERMEDIATE RESULTS IN SELECTED SEGMENTS
  TIME =   3D 11H  0M  0S .
 
 TOTAL MASS IN SYSTEM 3.0214E+03 0.0000E+00 3.0214E+03
 CHANGES BY PROCESSES 0.0000E+00 0.0000E+00 0.0000E+00
 CHANGES BY LOADS     0.0000E+00 0.0000E+00 0.0000E+00
 BOUNDARY INFLOWS     3.6000E+03 0.0000E+00 3.6000E+03
 BOUNDARY OUTFLOWS    3.6000E+03 0.0000E+00 3.6000E+03
                      Check      Initial    Boundary F 
                                            low        
 CONCENTRATION                           
 SWT_Normal           1.0000E+00 0.0000E+00 1.0000E+00
 
1
                                             Fraction calculation Sobek-WQ           
                                                                                     
                                                                                     
                                             T0: 2012.01.01 00:00:00  (scu=       1s)
  87.50% Completed


 DUMP OF INTERMEDIATE RESULTS IN SELECTED SEGMENTS
  TIME =   3D 12H  0M  0S .
 
 TOTAL MASS IN SYSTEM 3.0214E+03 0.0000E+00 3.0214E+03
 CHANGES BY PROCESSES 0.0000E+00 0.0000E+00 0.0000E+00
 CHANGES BY LOADS     0.0000E+00 0.0000E+00 0.0000E+00
 BOUNDARY INFLOWS     3.6000E+03 0.0000E+00 3.6000E+03
 BOUNDARY OUTFLOWS    3.6000E+03 0.0000E+00 3.6000E+03
                      Check      Initial    Boundary F 
                                            low        
 CONCENTRATION                           
 SWT_Normal           1.0000E+00 0.0000E+00 1.0000E+00
 
  88.54% Completed


 DUMP OF INTERMEDIATE RESULTS IN SELECTED SEGMENTS
  TIME =   3D 13H  0M  0S .
 
 TOTAL MASS IN SYSTEM 3.0214E+03 0.0000E+00 3.0214E+03
 CHANGES BY PROCESSES 0.0000E+00 0.0000E+00 0.0000E+00
 CHANGES BY LOADS     0.0000E+00 0.0000E+00 0.0000E+00
 BOUNDARY INFLOWS     3.6000E+03 0.0000E+00 3.6000E+03
 BOUNDARY OUTFLOWS    3.6000E+03 0.0000E+00 3.6000E+03
                      Check      Initial    Boundary F 
                                            low        
 CONCENTRATION                           
 SWT_Normal           1.0000E+00 0.0000E+00 1.0000E+00
 
  89.58% Completed


 DUMP OF INTERMEDIATE RESULTS IN SELECTED SEGMENTS
  TIME =   3D 14H  0M  0S .
 
 TOTAL MASS IN SYSTEM 3.0214E+03 0.0000E+00 3.0214E+03
 CHANGES BY PROCESSES 0.0000E+00 0.0000E+00 0.0000E+00
 CHANGES BY LOADS     0.0000E+00 0.0000E+00 0.0000E+00
 BOUNDARY INFLOWS     3.6000E+03 0.0000E+00 3.6000E+03
 BOUNDARY OUTFLOWS    3.6000E+03 0.0000E+00 3.6000E+03
                      Check      Initial    Boundary F 
                                            low        
 CONCENTRATION                           
 SWT_Normal           1.0000E+00 0.0000E+00 1.0000E+00
 
  90.62% Completed


 DUMP OF INTERMEDIATE RESULTS IN SELECTED SEGMENTS
  TIME =   3D 15H  0M  0S .
 
 TOTAL MASS IN SYSTEM 3.0214E+03 0.0000E+00 3.0214E+03
 CHANGES BY PROCESSES 0.0000E+00 0.0000E+00 0.0000E+00
 CHANGES BY LOADS     0.0000E+00 0.0000E+00 0.0000E+00
 BOUNDARY INFLOWS     3.6000E+03 0.0000E+00 3.6000E+03
 BOUNDARY OUTFLOWS    3.6000E+03 0.0000E+00 3.6000E+03
                      Check      Initial    Boundary F 
                                            low        
 CONCENTRATION                           
 SWT_Normal           1.0000E+00 0.0000E+00 1.0000E+00
 
1
                                             Fraction calculation Sobek-WQ           
                                                                                     
                                                                                     
                                             T0: 2012.01.01 00:00:00  (scu=       1s)
  91.67% Completed


 DUMP OF INTERMEDIATE RESULTS IN SELECTED SEGMENTS
  TIME =   3D 16H  0M  0S .
 
 TOTAL MASS IN SYSTEM 3.0214E+03 0.0000E+00 3.0214E+03
 CHANGES BY PROCESSES 0.0000E+00 0.0000E+00 0.0000E+00
 CHANGES BY LOADS     0.0000E+00 0.0000E+00 0.0000E+00
 BOUNDARY INFLOWS     3.6000E+03 0.0000E+00 3.6000E+03
 BOUNDARY OUTFLOWS    3.6000E+03 0.0000E+00 3.6000E+03
                      Check      Initial    Boundary F 
                                            low        
 CONCENTRATION                           
 SWT_Normal           1.0000E+00 0.0000E+00 1.0000E+00
 
  92.71% Completed


 DUMP OF INTERMEDIATE RESULTS IN SELECTED SEGMENTS
  TIME =   3D 17H  0M  0S .
 
 TOTAL MASS IN SYSTEM 3.0214E+03 0.0000E+00 3.0214E+03
 CHANGES BY PROCESSES 0.0000E+00 0.0000E+00 0.0000E+00
 CHANGES BY LOADS     0.0000E+00 0.0000E+00 0.0000E+00
 BOUNDARY INFLOWS     3.6000E+03 0.0000E+00 3.6000E+03
 BOUNDARY OUTFLOWS    3.6000E+03 0.0000E+00 3.6000E+03
                      Check      Initial    Boundary F 
                                            low        
 CONCENTRATION                           
 SWT_Normal           1.0000E+00 0.0000E+00 1.0000E+00
 
  93.75% Completed


 DUMP OF INTERMEDIATE RESULTS IN SELECTED SEGMENTS
  TIME =   3D 18H  0M  0S .
 
 TOTAL MASS IN SYSTEM 3.0214E+03 0.0000E+00 3.0214E+03
 CHANGES BY PROCESSES 0.0000E+00 0.0000E+00 0.0000E+00
 CHANGES BY LOADS     0.0000E+00 0.0000E+00 0.0000E+00
 BOUNDARY INFLOWS     3.6000E+03 0.0000E+00 3.6000E+03
 BOUNDARY OUTFLOWS    3.6000E+03 0.0000E+00 3.6000E+03
                      Check      Initial    Boundary F 
                                            low        
 CONCENTRATION                           
 SWT_Normal           1.0000E+00 0.0000E+00 1.0000E+00
 
  94.79% Completed


 DUMP OF INTERMEDIATE RESULTS IN SELECTED SEGMENTS
  TIME =   3D 19H  0M  0S .
 
 TOTAL MASS IN SYSTEM 3.0214E+03 0.0000E+00 3.0214E+03
 CHANGES BY PROCESSES 0.0000E+00 0.0000E+00 0.0000E+00
 CHANGES BY LOADS     0.0000E+00 0.0000E+00 0.0000E+00
 BOUNDARY INFLOWS     3.6000E+03 0.0000E+00 3.6000E+03
 BOUNDARY OUTFLOWS    3.6000E+03 0.0000E+00 3.6000E+03
                      Check      Initial    Boundary F 
                                            low        
 CONCENTRATION                           
 SWT_Normal           1.0000E+00 0.0000E+00 1.0000E+00
 
1
                                             Fraction calculation Sobek-WQ           
                                                                                     
                                                                                     
                                             T0: 2012.01.01 00:00:00  (scu=       1s)
  95.83% Completed


 DUMP OF INTERMEDIATE RESULTS IN SELECTED SEGMENTS
  TIME =   3D 20H  0M  0S .
 
 TOTAL MASS IN SYSTEM 3.0214E+03 0.0000E+00 3.0214E+03
 CHANGES BY PROCESSES 0.0000E+00 0.0000E+00 0.0000E+00
 CHANGES BY LOADS     0.0000E+00 0.0000E+00 0.0000E+00
 BOUNDARY INFLOWS     3.6000E+03 0.0000E+00 3.6000E+03
 BOUNDARY OUTFLOWS    3.6000E+03 0.0000E+00 3.6000E+03
                      Check      Initial    Boundary F 
                                            low        
 CONCENTRATION                           
 SWT_Normal           1.0000E+00 0.0000E+00 1.0000E+00
 
  96.88% Completed


 DUMP OF INTERMEDIATE RESULTS IN SELECTED SEGMENTS
  TIME =   3D 21H  0M  0S .
 
 TOTAL MASS IN SYSTEM 3.0214E+03 0.0000E+00 3.0214E+03
 CHANGES BY PROCESSES 0.0000E+00 0.0000E+00 0.0000E+00
 CHANGES BY LOADS     0.0000E+00 0.0000E+00 0.0000E+00
 BOUNDARY INFLOWS     3.6000E+03 0.0000E+00 3.6000E+03
 BOUNDARY OUTFLOWS    3.6000E+03 0.0000E+00 3.6000E+03
                      Check      Initial    Boundary F 
                                            low        
 CONCENTRATION                           
 SWT_Normal           1.0000E+00 0.0000E+00 1.0000E+00
 
  97.92% Completed


 DUMP OF INTERMEDIATE RESULTS IN SELECTED SEGMENTS
  TIME =   3D 22H  0M  0S .
 
 TOTAL MASS IN SYSTEM 3.0214E+03 0.0000E+00 3.0214E+03
 CHANGES BY PROCESSES 0.0000E+00 0.0000E+00 0.0000E+00
 CHANGES BY LOADS     0.0000E+00 0.0000E+00 0.0000E+00
 BOUNDARY INFLOWS     3.6000E+03 0.0000E+00 3.6000E+03
 BOUNDARY OUTFLOWS    3.6000E+03 0.0000E+00 3.6000E+03
                      Check      Initial    Boundary F 
                                            low        
 CONCENTRATION                           
 SWT_Normal           1.0000E+00 0.0000E+00 1.0000E+00
 
  98.96% Completed


 DUMP OF INTERMEDIATE RESULTS IN SELECTED SEGMENTS
  TIME =   3D 23H  0M  0S .
 
 TOTAL MASS IN SYSTEM 3.0214E+03 0.0000E+00 3.0214E+03
 CHANGES BY PROCESSES 0.0000E+00 0.0000E+00 0.0000E+00
 CHANGES BY LOADS     0.0000E+00 0.0000E+00 0.0000E+00
 BOUNDARY INFLOWS     3.6000E+03 0.0000E+00 3.6000E+03
 BOUNDARY OUTFLOWS    3.6000E+03 0.0000E+00 3.6000E+03
                      Check      Initial    Boundary F 
                                            low        
 CONCENTRATION                           
 SWT_Normal           1.0000E+00 0.0000E+00 1.0000E+00
 

 REWIND ON       UNIT:  23, READING: ..\work\Area.dat
 AT SIMULATION TIME:    4D  0H  0M  0S !
 TIME IN FILE:          4D  0H  0M  0S !

 REWIND ON       UNIT:  24, READING: ..\work\Flow.dat
 AT SIMULATION TIME:    4D  0H  0M  0S !
 TIME IN FILE:          4D  0H  0M  0S !
1
                                             Fraction calculation Sobek-WQ           
                                                                                     
                                                                                     
                                             T0: 2012.01.01 00:00:00  (scu=       1s)
 100.00% Completed


 DUMP OF INTERMEDIATE RESULTS IN SELECTED SEGMENTS
  TIME =   4D  0H  0M  0S .
 
 TOTAL MASS IN SYSTEM 3.0214E+03 0.0000E+00 3.0214E+03
 CHANGES BY PROCESSES 0.0000E+00 0.0000E+00 0.0000E+00
 CHANGES BY LOADS     0.0000E+00 0.0000E+00 0.0000E+00
 BOUNDARY INFLOWS     3.6000E+03 0.0000E+00 3.6000E+03
 BOUNDARY OUTFLOWS    3.6000E+03 0.0000E+00 3.6000E+03
                      Check      Initial    Boundary F 
                                            low        
 CONCENTRATION                           
 SWT_Normal           1.0000E+00 0.0000E+00 1.0000E+00
 
 
 Simulation ended normal
 Execution stop : 2012/01/09 11:21:34 
