 Delft3D-WAQ version  4.5212 17-06-2011
 Only to be used by SOBEK licensee                          
 (c) Deltares
 Execution start: 2012/01/09 11:21:30 
       ----------> Version number of the input file is: 4.910
       ----------> Output level of the listfile is: 4


 Model :            Fraction calculation Sobek-WQ           
                                                            

 Including file: \S212003\FINITEV.LIT\WORK\DELWAQ4.INP                                                                                                                                                                                                                                                                                                                                                                                                                                                                                                                                                                                                                                                                                                                                                                                                                                                                                                                                                                                                   


 Run   :                                                    
                    T0: 2012.01.01 00:00:00  (scu=       1s)

 Intermediate version absolute timer detected !
 System clock is     1 seconds !

 Closing file: \S212003\FINITEV.LIT\WORK\DELWAQ4.INP                                         

 Continuing on file: delwaq.inp                                                                    

 Including file: ..\work\substanc.fra                                                                                                                                                                                                                                                                                                                                                                                                                                                                                                                                                                                                                                                                                                                                                                                                                                                                                                                                                                                                                    

 Closing file: ..\work\substanc.fra                                                          

 Continuing on file: delwaq.inp                                                                    

 Number of active constituents   :  3
 Number of inactive constituents :  0
 Total number of constituents    :  3
 Number   name
    1     Check               
    2     Initial             
    3     Boundary Flow       

 *********************************************************** B L O C K - 1 *****


 Including file: \S212003\FINITEV.LIT\WORK\DELWAQ1.INP                                                                                                                                                                                                                                                                                                                                                                                                                                                                                                                                                                                                                                                                                                                                                                                                                                                                                                                                                                                                   


 Factor between two clocks :       86400
 System clock in date-format  DDHHMMSS 
 Auxiliary timer in date-format DDHHMMSS 

 The auxiliary timer is not equal to the system timer.
 All the process fluxes will be scaled from the auxiliary timer to the system timer.

 Integration option :               15.70
 Start of simulation : 0Y-  0D- 0H- 0M- 0S.
 End of simulation   : 0Y-  4D- 0H- 0M- 0S.
 Selected option for time step size :  0
 Integration time stepsize is : 0Y-  0D- 0H-10M- 0S.

 Closing file: \S212003\FINITEV.LIT\WORK\DELWAQ1.INP                                         

 Continuing on file: delwaq.inp                                                                    

 Dump areas:
 option selected for input : 1
 Information from the standard input file.

 Including file: \S212003\FINITEV.LIT\3\OUTLOCWQ.DAT                                                                                                                                                                                                                                                                                                                                                                                                                                                                                                                                                                                                                                                                                                                                                                                                                                                                                                                                                                                                     

 Including file: ..\work\monitor.dat                                                                                                                                                                                                                                                                                                                                                                                                                                                                                                                                                                                                                                                                                                                                                                                                                                                                                                                                                                                                                     

 Number of dump areas :    1

 Dump area :    1 : SWT_Normal          
 Number of segments in area :              7
          number   segment
              1              1
              2              2
              3              3
              4              4
              5              5
              6              6
              7              7

 Closing file: ..\work\monitor.dat                                                           

 Continuing on file: \S212003\FINITEV.LIT\3\OUTLOCWQ.DAT                                           

 Closing file: \S212003\FINITEV.LIT\3\OUTLOCWQ.DAT                                           

 Continuing on file: delwaq.inp                                                                    

 Transects:
 option selected for input : 2
 No transects used.

 Including file: \S212003\FINITEV.LIT\WORK\DELWAQ2.INP                                                                                                                                                                                                                                                                                                                                                                                                                                                                                                                                                                                                                                                                                                                                                                                                                                                                                                                                                                                                   


 Monitoring  timings :
 Start time : 0Y-  0D- 0H- 0M- 0S 
 Stop time  : 0Y-  4D- 0H- 0M- 0S 
 Time step  : 0Y-  0D- 1H- 0M- 0S 


 Output      timings :
 Start time : 0Y-  0D- 0H- 0M- 0S 
 Stop time  : 0Y-  4D- 0H- 0M- 0S 
 Time step  : 0Y-  0D- 0H-10M- 0S 


 History     timings :
 Start time : 0Y-  0D- 0H- 0M- 0S 
 Stop time  : 0Y-  4D- 0H- 0M- 0S 
 Time step  : 0Y-  0D- 0H-10M- 0S 

 Closing file: \S212003\FINITEV.LIT\WORK\DELWAQ2.INP                                         

 Continuing on file: delwaq.inp                                                                    

 *********************************************************** B L O C K - 2 *****


 Including file: ..\work\nrofsegm.dat                                                                                                                                                                                                                                                                                                                                                                                                                                                                                                                                                                                                                                                                                                                                                                                                                                                                                                                                                                                                                    


 Number of segments :              7

 Closing file: ..\work\nrofsegm.dat                                                          

 Continuing on file: delwaq.inp                                                                    

 NO process decomposition selected

 option selected for grid layout : 2
 Grid layout not used.

  0 blocks of time independent attribute contribution

 option for time dependent attributes   0
 NO time dependent attributes
 No first attribute set, using default 1
 No second attribute set, using default 0

 Volumes:

 Including file: flowfil.mod                                                                                                                                                                                                                                                                                                                                                                                                                                                                                                                                                                                                                                                                                                                                                                                                                                                                                                                                                                                                                             

 First  selected option   :      -2

 Closing file: flowfil.mod                                                                   

 Continuing on file: delwaq.inp                                                                    

 Information from unformatted intermediate file.
 Filename is: ..\work\Volume.dat                                                                                                                                                                                                                                             

 *********************************************************** B L O C K - 3 *****


 Including file: ..\work\nrofexch.dat                                                                                                                                                                                                                                                                                                                                                                                                                                                                                                                                                                                                                                                                                                                                                                                                                                                                                                                                                                                                                    


 Dimensions of the system :
 Number of exchanges 1st direction :       8
 Number of exchanges 2nd direction :       0
 Number of exchanges 3rd direction :       0
 Total number of exchanges         :       8

 Closing file: ..\work\nrofexch.dat                                                          

 Continuing on file: delwaq.inp                                                                    

 Number of dispersion arrays       :       1

 Including file: ..\work\dispersf.dat                                                                                                                                                                                                                                                                                                                                                                                                                                                                                                                                                                                                                                                                                                                                                                                                                                                                                                                                                                                                                    

 Item nr:       names:
     1          Dispersion          
 

 Closing file: ..\work\dispersf.dat                                                          

 Continuing on file: delwaq.inp                                                                    

 Number of velocity arrays         :       0
 System dispersion velocity
   nr.      nr.      nr.   
     1        1        0
     2        1        0
     3        1        0

 Input option                      :       1

 Option selected for pointers      :      -1

 Including file: ..\work\Pointer.dat                                                                                                                                                                                                                                            

           First direction :
   Item nr.  From      To  From-1    To+1
       1       2       1       3       0
       2       3       2       4       1
       3       4       3       5       2
       4       5       4       6       3
       5       6       5       7       4
       6       7       6       0       5
       7      -1       1      -1       2
       8      -2       7      -2       6

 Number of boundaries  :   2


 boundary  exchange    from        to
  number    number    segment    segment
      1         7        -1         1
      2         8        -2         7

 Size of the big matrix for fast solvers is:         14

 Dispersion:

 Closing file: ..\work\Pointer.dat                                                           

 Continuing on file: delwaq.inp                                                                    

 Including file: \S212003\FINITEV.LIT\WORK\DELWAQ3.INP                                                                                                                                                                                                                                                                                                                                                                                                                                                                                                                                                                                                                                                                                                                                                                                                                                                                                                                                                                                                   

 First  selected option   :       1
 Information from the standard input file.
 Constant values without defaults 

 Scale factors:
                 1           2           3
              1.0000E+00  1.0000E+00  1.0000E+00
 Unscaled values:
         1    0.0000E+00  0.0000E+00  0.0000E+00

 Closing file: \S212003\FINITEV.LIT\WORK\DELWAQ3.INP                                         

 Continuing on file: delwaq.inp                                                                    

 Including file: ..\work\disperx.dat                                                                                                                                                                                                                                                                                                                                                                                                                                                                                                                                                                                                                                                                                                                                                                                                                                                                                                                                                                                                                     
 Second selected option   :       1

 First  direction:
 Constant values without defaults 

 Scale factors:
                 1
              1.0000E+00
 Unscaled values:
         1    0.0000E+00
         2    0.0000E+00
         3    0.0000E+00
         4    0.0000E+00
         5    0.0000E+00
         6    0.0000E+00
         7    0.0000E+00
         8    0.0000E+00

 Area:

 Closing file: ..\work\disperx.dat                                                           

 Continuing on file: delwaq.inp                                                                    

 Including file: flowfil.mod                                                                                                                                                                                                                                                                                                                                                                                                                                                                                                                                                                                                                                                                                                                                                                                                                                                                                                                                                                                                                             

 First  selected option   :      -2

 Closing file: flowfil.mod                                                                   

 Continuing on file: delwaq.inp                                                                    

 Information from unformatted intermediate file.
 Filename is: ..\work\Area.dat                                                                                                                                                                                                                                               

 Flows:

 Including file: flowfil.mod                                                                                                                                                                                                                                                                                                                                                                                                                                                                                                                                                                                                                                                                                                                                                                                                                                                                                                                                                                                                                             

 First  selected option   :      -2

 Closing file: flowfil.mod                                                                   

 Continuing on file: delwaq.inp                                                                    

 Information from unformatted intermediate file.
 Filename is: ..\work\Flow.dat                                                                                                                                                                                                                                               

 Lengths:
 Option for lengths          :      1
 Lengths variable over the area.

 First  selected option   :       0

 Information from unformatted intermediate file.
 Filename is: ..\work\Length.dat                                                                                                                                                                                                                                             

 *********************************************************** B L O C K - 4 *****


 Boundary-IDs:       boundary-names:                         boundary-types:


 Including file: ..\work\Boundfra.id                                                                                                                                                                                                                                                                                                                                                                                                                                                                                                                                                                                                                                                                                                                                                                                                                                                                                                                                                                                                                     
    1               Boundary name       1                   Boundary Flow       
    2               Boundary name       2                   Boundary Flow       
 
 Number of different boundary types:    1
 Type:  Type-string
     1  Boundary Flow       
 

 Closing file: ..\work\Boundfra.id                                                           

 Continuing on file: delwaq.inp                                                                    

 Including file: ..\work\tatcherharlemen.wq                                                                                                                                                                                                                                                                                                                                                                                                                                                                                                                                                                                                                                                                                                                                                                                                                                                                                                                                                                                                              

 Time lag option:  0
 No time lags

 Boundary concentrations

 Closing file: ..\work\tatcherharlemen.wq                                                    

 Continuing on file: delwaq.inp                                                                    

 Including file: ..\work\Boundfra.dat                                                                                                                                                                                                                                                                                                                                                                                                                                                                                                                                                                                                                                                                                                                                                                                                                                                                                                                                                                                                                    

 BLOCKED per ITEM:
 Input BOUNDARIES nr:    1 is BOUNDARIES nr:    1 with type: Boundary Flow       

 CONCENTRATIONs within the item blocks:
 Input CONCENTR.  nr:    1 is CONCENTR.  nr:    1 with ID  : Check               
 Input CONCENTR.  nr:    2 is CONCENTR.  nr:    3 with ID  : Boundary Flow       

 DATA grouped in         1 blocks of         2 Substance 
 Constant values in this block.
 Substance      1           3
 boundary     Check       Boundary F  
         1    1.0000E+00  1.0000E+00

 ====> input item completed <==== 



 Closing file: ..\work\Boundfra.dat                                                          

 Continuing on file: delwaq.inp                                                                    

 *********************************************************** B L O C K - 5 *****


 No waste loads 

 *********************************************************** B L O C K - 6 *****

 Input constant   nr:    1 is constant   nr:    1 with ID  : Iteration report    
 constant values in this block.
 values         1
 constants    Iteration   
         1    0.0000E+00

 ====> input item completed <==== 


  
 Input seg-funct. nr:    1 is seg-funct. nr:    1 with ID  : Chezy               
 Input seg-funct. nr:    2 is seg-funct. nr:    2 with ID  : Surf                
 Input seg-funct. nr:    3 is seg-funct. nr:    3 with ID  : Velocity            
 Input seg-funct. nr:    4 is seg-funct. nr:    4 with ID  : Width               

 Input will be given for all          7 segments.

 seg-funct.s ordered in groups of segments per seg-funct..
 Input comes from binary file: ..\work\segfun.dat                                                                                                                                                                                                                                              
 info comes at runtime from binary file: ..\work\segfun.dat

 ====> input item completed <==== 



 Total number of constants        :    1

 Total number of parameters       :    0

 Total number of functions        :    0

 Total number of segment functions:    4

 *********************************************************** B L O C K - 7 *****


 Including file: \S212003\FINITEV.LIT\WORK\WQ.DAT                                                                                                                                                                                                                                                                                                                                                                                                                                                                                                                                                                                                                                                                                                                                                                                                                                                                                                                                                                                                        

 Option selected for initials    :   0

 Information from unformatted intermediate file.
 Filename is: ..\WORK\DUMMY.RES                                                                                                                                                                                                                                              

 Closing file: \S212003\FINITEV.LIT\WORK\WQ.DAT                                              

 Continuing on file: delwaq.inp                                                                    

 *********************************************************** B L O C K - 8 *****



 Option selected for output specification :   1
 Information from the standard input file.

 Specification of monitor output

 Default output for this file

 Specification of grid dump output

 No output for this file

 Specification of history output

 All substances plus extra output variables

 (      2) number of output variables specified

 Number           Identification        Weight variable
       1           Volume                                    
       2           Surf                                      

 Specification of map output

 All substances plus extra output variables

 (      2) number of output variables specified

 Number           Identification 
       1           Volume              
       2           Surf                

 Binary history file switched on

 Binary map file switched on

 NEFIS history file switched off

 NEFIS map file switched off

 NO BALANCE output : balance option not active !
 
  Determining the place of the output variables
 
        Volume              ; Using DELWAQ VOLUME
        Surf                ; Using segment function nr           2
        Volume              ; Using DELWAQ VOLUME
        Surf                ; Using segment function nr           2

 *********************************************************** B L O C K - 9 *****


 Output operations
Number of periods defined:     0
 

 *********************************************************** B L O C K -10 *****



 Messages presented in this .lst file:

 Number of WARNINGS            :  0
 Number of ERRORS during input :  0
 


 Messages presented including .lsp file:
 Number of WARNINGS            :     1

 Number of ERRORS during input :     0

 Parallel processing with   1 processor(s)

 total real      array space:        914
 total integer   array space:       2002
 total character array space:        181
 grand total in 4-byte words:       3097 =   0-GB   0-MB  12-KB 388-Byte.
 Execution stop : 2012/01/09 11:21:30 
