 Delft3D-WAQ version  4.5204 16-03-2009
 Only to be used by SOBEK licensee                          
 (c) Deltares
 Execution start: 2012/12/13 15:26:14 
       ----------> Version number of the input file is: 4.910
       ----------> Output level of the listfile is: 4


 Model :            Fraction calculation Sobek-WQ           
                                                            

 Including file: \SBK212\SBI.LIT\WORK\DELWAQ4.INP                                                                                                                                                                                                                                                                                                                                                                                                                                                                                                                                                                                                                                                                                                                                                                                                                                                                                                                                                                                                        


 Run   :                                                    
                    T0: 2009.01.01 01:00:00  (scu=       1s)

 Intermediate version absolute timer detected !
 System clock is     1 seconds !

 Closing file: \SBK212\SBI.LIT\WORK\DELWAQ4.INP                                              

 Continuing on file: delwaq.inp                                                                    

 Including file: ..\work\substanc.fra                                                                                                                                                                                                                                                                                                                                                                                                                                                                                                                                                                                                                                                                                                                                                                                                                                                                                                                                                                                                                    

 Number of active constituents   : 21
 Number of inactive constituents :  0
 Total number of constituents    : 21
 Number   name
    1     Check               
    2     Initial             
    3     Lateral inflow      
    4     Boundary Flow       
    5     Geuzenveld          
    6     Louwesweg           
    7     Plesmanlaan         
    8     NicoBroekhuizen     
    9     Cramersluis         
   10     Heemstedesluis      
   11     Akersluis           
   12     neerslag            
   13     verhard-slp         
   14     verhard             
   15     onverhard-slp       
   16     onverhard           
   17     neerslag-slp        
   18     REST_NicoBroek      
   19     REST_Westlndgr      
   20     Multatuli           
   21     SuppletieSLP        

 Closing file: ..\work\substanc.fra                                                          

 Continuing on file: delwaq.inp                                                                    

 *********************************************************** B L O C K - 1 *****


 Including file: \SBK212\SBI.LIT\WORK\DELWAQ1.INP                                                                                                                                                                                                                                                                                                                                                                                                                                                                                                                                                                                                                                                                                                                                                                                                                                                                                                                                                                                                        


 Factor between two clocks :       86400
 System clock in date-format  DDHHMMSS 
 Auxiliary timer in date-format DDHHMMSS 

 The auxiliary timer is not equal to the system timer.
 All the process fluxes will be scaled from the auxiliary timer to the system timer.

 Integration option :               15.70
 Start of simulation : 0Y-  0D- 0H- 0M- 0S.
 End of simulation   : 0Y- 31D- 0H- 0M- 0S.
 Selected option for time step size :  0
 Integration time stepsize is : 0Y-  0D- 0H- 5M- 0S.

 Closing file: \SBK212\SBI.LIT\WORK\DELWAQ1.INP                                              

 Continuing on file: delwaq.inp                                                                    

 Dump areas:
 option selected for input : 1
 Information from the standard input file.

 Including file: \SBK212\SBI.LIT\19\OUTLOCWQ.DAT                                                                                                                                                                                                                                                                                                                                                                                                                                                                                                                                                                                                                                                                                                                                                                                                                                                                                                                                                                                                         

 Including file: ..\work\segment.dat                                                                                                                                                                                                                                                                                                                                                                                                                                                                                                                                                                                                                                                                                                                                                                                                                                                                                                                                                                                                                     

 Number of dump areas :  229

 Dump area :    1 : Segment    1        
 Number of segments in area :              1
          number   segment
              1              1

 Dump area :    2 : Segment    2        
 Number of segments in area :              1
          number   segment
              1              2

 Dump area :    3 : Segment    3        
 Number of segments in area :              1
          number   segment
              1              3

 Dump area :    4 : Segment    4        
 Number of segments in area :              1
          number   segment
              1              4

 Dump area :    5 : Segment    5        
 Number of segments in area :              1
          number   segment
              1              5

 Dump area :    6 : Segment    6        
 Number of segments in area :              1
          number   segment
              1              6

 Dump area :    7 : Segment    7        
 Number of segments in area :              1
          number   segment
              1              7

 Dump area :    8 : Segment    8        
 Number of segments in area :              1
          number   segment
              1              8

 Dump area :    9 : Segment    9        
 Number of segments in area :              1
          number   segment
              1              9

 Dump area :   10 : Segment   10        
 Number of segments in area :              1
          number   segment
              1             10

 Dump area :   11 : Segment   11        
 Number of segments in area :              1
          number   segment
              1             11

 Dump area :   12 : Segment   12        
 Number of segments in area :              1
          number   segment
              1             12

 Dump area :   13 : Segment   13        
 Number of segments in area :              1
          number   segment
              1             13

 Dump area :   14 : Segment   14        
 Number of segments in area :              1
          number   segment
              1             14

 Dump area :   15 : Segment   15        
 Number of segments in area :              1
          number   segment
              1             15

 Dump area :   16 : Segment   16        
 Number of segments in area :              1
          number   segment
              1             16

 Dump area :   17 : Segment   17        
 Number of segments in area :              1
          number   segment
              1             17

 Dump area :   18 : Segment   18        
 Number of segments in area :              1
          number   segment
              1             18

 Dump area :   19 : Segment   19        
 Number of segments in area :              1
          number   segment
              1             19

 Dump area :   20 : Segment   20        
 Number of segments in area :              1
          number   segment
              1             20

 Dump area :   21 : Segment   21        
 Number of segments in area :              1
          number   segment
              1             21

 Dump area :   22 : Segment   22        
 Number of segments in area :              1
          number   segment
              1             22

 Dump area :   23 : Segment   23        
 Number of segments in area :              1
          number   segment
              1             23

 Dump area :   24 : Segment   24        
 Number of segments in area :              1
          number   segment
              1             24

 Dump area :   25 : Segment   25        
 Number of segments in area :              1
          number   segment
              1             25

 Dump area :   26 : Segment   26        
 Number of segments in area :              1
          number   segment
              1             26

 Dump area :   27 : Segment   27        
 Number of segments in area :              1
          number   segment
              1             27

 Dump area :   28 : Segment   28        
 Number of segments in area :              1
          number   segment
              1             28

 Dump area :   29 : Segment   29        
 Number of segments in area :              1
          number   segment
              1             29

 Dump area :   30 : Segment   30        
 Number of segments in area :              1
          number   segment
              1             30

 Dump area :   31 : Segment   31        
 Number of segments in area :              1
          number   segment
              1             31

 Dump area :   32 : Segment   32        
 Number of segments in area :              1
          number   segment
              1             32

 Dump area :   33 : Segment   33        
 Number of segments in area :              1
          number   segment
              1             33

 Dump area :   34 : Segment   34        
 Number of segments in area :              1
          number   segment
              1             34

 Dump area :   35 : Segment   35        
 Number of segments in area :              1
          number   segment
              1             35

 Dump area :   36 : Segment   36        
 Number of segments in area :              1
          number   segment
              1             36

 Dump area :   37 : Segment   37        
 Number of segments in area :              1
          number   segment
              1             37

 Dump area :   38 : Segment   38        
 Number of segments in area :              1
          number   segment
              1             38

 Dump area :   39 : Segment   39        
 Number of segments in area :              1
          number   segment
              1             39

 Dump area :   40 : Segment   40        
 Number of segments in area :              1
          number   segment
              1             40

 Dump area :   41 : Segment   41        
 Number of segments in area :              1
          number   segment
              1             41

 Dump area :   42 : Segment   42        
 Number of segments in area :              1
          number   segment
              1             42

 Dump area :   43 : Segment   43        
 Number of segments in area :              1
          number   segment
              1             43

 Dump area :   44 : Segment   44        
 Number of segments in area :              1
          number   segment
              1             44

 Dump area :   45 : Segment   45        
 Number of segments in area :              1
          number   segment
              1             45

 Dump area :   46 : Segment   46        
 Number of segments in area :              1
          number   segment
              1             46

 Dump area :   47 : Segment   47        
 Number of segments in area :              1
          number   segment
              1             47

 Dump area :   48 : Segment   48        
 Number of segments in area :              1
          number   segment
              1             48

 Dump area :   49 : Segment   49        
 Number of segments in area :              1
          number   segment
              1             49

 Dump area :   50 : Segment   50        
 Number of segments in area :              1
          number   segment
              1             50

 Dump area :   51 : Segment   51        
 Number of segments in area :              1
          number   segment
              1             51

 Dump area :   52 : Segment   52        
 Number of segments in area :              1
          number   segment
              1             52

 Dump area :   53 : Segment   53        
 Number of segments in area :              1
          number   segment
              1             53

 Dump area :   54 : Segment   54        
 Number of segments in area :              1
          number   segment
              1             54

 Dump area :   55 : Segment   55        
 Number of segments in area :              1
          number   segment
              1             55

 Dump area :   56 : Segment   56        
 Number of segments in area :              1
          number   segment
              1             56

 Dump area :   57 : Segment   57        
 Number of segments in area :              1
          number   segment
              1             57

 Dump area :   58 : Segment   58        
 Number of segments in area :              1
          number   segment
              1             58

 Dump area :   59 : Segment   59        
 Number of segments in area :              1
          number   segment
              1             59

 Dump area :   60 : Segment   60        
 Number of segments in area :              1
          number   segment
              1             60

 Dump area :   61 : Segment   61        
 Number of segments in area :              1
          number   segment
              1             61

 Dump area :   62 : Segment   62        
 Number of segments in area :              1
          number   segment
              1             62

 Dump area :   63 : Segment   63        
 Number of segments in area :              1
          number   segment
              1             63

 Dump area :   64 : Segment   64        
 Number of segments in area :              1
          number   segment
              1             64

 Dump area :   65 : Segment   65        
 Number of segments in area :              1
          number   segment
              1             65

 Dump area :   66 : Segment   66        
 Number of segments in area :              1
          number   segment
              1             66

 Dump area :   67 : Segment   67        
 Number of segments in area :              1
          number   segment
              1             67

 Dump area :   68 : Segment   68        
 Number of segments in area :              1
          number   segment
              1             68

 Dump area :   69 : Segment   69        
 Number of segments in area :              1
          number   segment
              1             69

 Dump area :   70 : Segment   70        
 Number of segments in area :              1
          number   segment
              1             70

 Dump area :   71 : Segment   71        
 Number of segments in area :              1
          number   segment
              1             71

 Dump area :   72 : Segment   72        
 Number of segments in area :              1
          number   segment
              1             72

 Dump area :   73 : Segment   73        
 Number of segments in area :              1
          number   segment
              1             73

 Dump area :   74 : Segment   74        
 Number of segments in area :              1
          number   segment
              1             74

 Dump area :   75 : Segment   75        
 Number of segments in area :              1
          number   segment
              1             75

 Dump area :   76 : Segment   76        
 Number of segments in area :              1
          number   segment
              1             76

 Dump area :   77 : Segment   77        
 Number of segments in area :              1
          number   segment
              1             77

 Dump area :   78 : Segment   78        
 Number of segments in area :              1
          number   segment
              1             78

 Dump area :   79 : Segment   79        
 Number of segments in area :              1
          number   segment
              1             79

 Dump area :   80 : Segment   80        
 Number of segments in area :              1
          number   segment
              1             80

 Dump area :   81 : Segment   81        
 Number of segments in area :              1
          number   segment
              1             81

 Dump area :   82 : Segment   82        
 Number of segments in area :              1
          number   segment
              1             82

 Dump area :   83 : Segment   83        
 Number of segments in area :              1
          number   segment
              1             83

 Dump area :   84 : Segment   84        
 Number of segments in area :              1
          number   segment
              1             84

 Dump area :   85 : Segment   85        
 Number of segments in area :              1
          number   segment
              1             85

 Dump area :   86 : Segment   86        
 Number of segments in area :              1
          number   segment
              1             86

 Dump area :   87 : Segment   87        
 Number of segments in area :              1
          number   segment
              1             87

 Dump area :   88 : Segment   88        
 Number of segments in area :              1
          number   segment
              1             88

 Dump area :   89 : Segment   89        
 Number of segments in area :              1
          number   segment
              1             89

 Dump area :   90 : Segment   90        
 Number of segments in area :              1
          number   segment
              1             90

 Dump area :   91 : Segment   91        
 Number of segments in area :              1
          number   segment
              1             91

 Dump area :   92 : Segment   92        
 Number of segments in area :              1
          number   segment
              1             92

 Dump area :   93 : Segment   93        
 Number of segments in area :              1
          number   segment
              1             93

 Dump area :   94 : Segment   94        
 Number of segments in area :              1
          number   segment
              1             94

 Dump area :   95 : Segment   95        
 Number of segments in area :              1
          number   segment
              1             95

 Dump area :   96 : Segment   96        
 Number of segments in area :              1
          number   segment
              1             96

 Dump area :   97 : Segment   97        
 Number of segments in area :              1
          number   segment
              1             97

 Dump area :   98 : Segment   98        
 Number of segments in area :              1
          number   segment
              1             98

 Dump area :   99 : Segment   99        
 Number of segments in area :              1
          number   segment
              1             99

 Dump area :  100 : Segment  100        
 Number of segments in area :              1
          number   segment
              1            100

 Dump area :  101 : Segment  101        
 Number of segments in area :              1
          number   segment
              1            101

 Dump area :  102 : Segment  102        
 Number of segments in area :              1
          number   segment
              1            102

 Dump area :  103 : Segment  103        
 Number of segments in area :              1
          number   segment
              1            103

 Dump area :  104 : Segment  104        
 Number of segments in area :              1
          number   segment
              1            104

 Dump area :  105 : Segment  105        
 Number of segments in area :              1
          number   segment
              1            105

 Dump area :  106 : Segment  106        
 Number of segments in area :              1
          number   segment
              1            106

 Dump area :  107 : Segment  107        
 Number of segments in area :              1
          number   segment
              1            107

 Dump area :  108 : Segment  108        
 Number of segments in area :              1
          number   segment
              1            108

 Dump area :  109 : Segment  109        
 Number of segments in area :              1
          number   segment
              1            109

 Dump area :  110 : Segment  110        
 Number of segments in area :              1
          number   segment
              1            110

 Dump area :  111 : Segment  111        
 Number of segments in area :              1
          number   segment
              1            111

 Dump area :  112 : Segment  112        
 Number of segments in area :              1
          number   segment
              1            112

 Dump area :  113 : Segment  113        
 Number of segments in area :              1
          number   segment
              1            113

 Dump area :  114 : Segment  114        
 Number of segments in area :              1
          number   segment
              1            114

 Dump area :  115 : Segment  115        
 Number of segments in area :              1
          number   segment
              1            115

 Dump area :  116 : Segment  116        
 Number of segments in area :              1
          number   segment
              1            116

 Dump area :  117 : Segment  117        
 Number of segments in area :              1
          number   segment
              1            117

 Dump area :  118 : Segment  118        
 Number of segments in area :              1
          number   segment
              1            118

 Dump area :  119 : Segment  119        
 Number of segments in area :              1
          number   segment
              1            119

 Dump area :  120 : Segment  120        
 Number of segments in area :              1
          number   segment
              1            120

 Dump area :  121 : Segment  121        
 Number of segments in area :              1
          number   segment
              1            121

 Dump area :  122 : Segment  122        
 Number of segments in area :              1
          number   segment
              1            122

 Dump area :  123 : Segment  123        
 Number of segments in area :              1
          number   segment
              1            123

 Dump area :  124 : Segment  124        
 Number of segments in area :              1
          number   segment
              1            124

 Dump area :  125 : Segment  125        
 Number of segments in area :              1
          number   segment
              1            125

 Dump area :  126 : Segment  126        
 Number of segments in area :              1
          number   segment
              1            126

 Dump area :  127 : Segment  127        
 Number of segments in area :              1
          number   segment
              1            127

 Dump area :  128 : Segment  128        
 Number of segments in area :              1
          number   segment
              1            128

 Dump area :  129 : Segment  129        
 Number of segments in area :              1
          number   segment
              1            129

 Dump area :  130 : Segment  130        
 Number of segments in area :              1
          number   segment
              1            130

 Dump area :  131 : Segment  131        
 Number of segments in area :              1
          number   segment
              1            131

 Dump area :  132 : Segment  132        
 Number of segments in area :              1
          number   segment
              1            132

 Dump area :  133 : Segment  133        
 Number of segments in area :              1
          number   segment
              1            133

 Dump area :  134 : Segment  134        
 Number of segments in area :              1
          number   segment
              1            134

 Dump area :  135 : Segment  135        
 Number of segments in area :              1
          number   segment
              1            135

 Dump area :  136 : Segment  136        
 Number of segments in area :              1
          number   segment
              1            136

 Dump area :  137 : Segment  137        
 Number of segments in area :              1
          number   segment
              1            137

 Dump area :  138 : Segment  138        
 Number of segments in area :              1
          number   segment
              1            138

 Dump area :  139 : Segment  139        
 Number of segments in area :              1
          number   segment
              1            139

 Dump area :  140 : Segment  140        
 Number of segments in area :              1
          number   segment
              1            140

 Dump area :  141 : Segment  141        
 Number of segments in area :              1
          number   segment
              1            141

 Dump area :  142 : Segment  142        
 Number of segments in area :              1
          number   segment
              1            142

 Dump area :  143 : Segment  143        
 Number of segments in area :              1
          number   segment
              1            143

 Dump area :  144 : Segment  144        
 Number of segments in area :              1
          number   segment
              1            144

 Dump area :  145 : Segment  145        
 Number of segments in area :              1
          number   segment
              1            145

 Dump area :  146 : Segment  146        
 Number of segments in area :              1
          number   segment
              1            146

 Dump area :  147 : Segment  147        
 Number of segments in area :              1
          number   segment
              1            147

 Dump area :  148 : Segment  148        
 Number of segments in area :              1
          number   segment
              1            148

 Dump area :  149 : Segment  149        
 Number of segments in area :              1
          number   segment
              1            149

 Dump area :  150 : Segment  150        
 Number of segments in area :              1
          number   segment
              1            150

 Dump area :  151 : Segment  151        
 Number of segments in area :              1
          number   segment
              1            151

 Dump area :  152 : Segment  152        
 Number of segments in area :              1
          number   segment
              1            152

 Dump area :  153 : Segment  153        
 Number of segments in area :              1
          number   segment
              1            153

 Dump area :  154 : Segment  154        
 Number of segments in area :              1
          number   segment
              1            154

 Dump area :  155 : Segment  155        
 Number of segments in area :              1
          number   segment
              1            155

 Dump area :  156 : Segment  156        
 Number of segments in area :              1
          number   segment
              1            156

 Dump area :  157 : Segment  157        
 Number of segments in area :              1
          number   segment
              1            157

 Dump area :  158 : Segment  158        
 Number of segments in area :              1
          number   segment
              1            158

 Dump area :  159 : Segment  159        
 Number of segments in area :              1
          number   segment
              1            159

 Dump area :  160 : Segment  160        
 Number of segments in area :              1
          number   segment
              1            160

 Dump area :  161 : Segment  161        
 Number of segments in area :              1
          number   segment
              1            161

 Dump area :  162 : Segment  162        
 Number of segments in area :              1
          number   segment
              1            162

 Dump area :  163 : Segment  163        
 Number of segments in area :              1
          number   segment
              1            163

 Dump area :  164 : Segment  164        
 Number of segments in area :              1
          number   segment
              1            164

 Dump area :  165 : Segment  165        
 Number of segments in area :              1
          number   segment
              1            165

 Dump area :  166 : Segment  166        
 Number of segments in area :              1
          number   segment
              1            166

 Dump area :  167 : Segment  167        
 Number of segments in area :              1
          number   segment
              1            167

 Dump area :  168 : Segment  168        
 Number of segments in area :              1
          number   segment
              1            168

 Dump area :  169 : Segment  169        
 Number of segments in area :              1
          number   segment
              1            169

 Dump area :  170 : Segment  170        
 Number of segments in area :              1
          number   segment
              1            170

 Dump area :  171 : Segment  171        
 Number of segments in area :              1
          number   segment
              1            171

 Dump area :  172 : Segment  172        
 Number of segments in area :              1
          number   segment
              1            172

 Dump area :  173 : Segment  173        
 Number of segments in area :              1
          number   segment
              1            173

 Dump area :  174 : Segment  174        
 Number of segments in area :              1
          number   segment
              1            174

 Dump area :  175 : Segment  175        
 Number of segments in area :              1
          number   segment
              1            175

 Dump area :  176 : Segment  176        
 Number of segments in area :              1
          number   segment
              1            176

 Dump area :  177 : Segment  177        
 Number of segments in area :              1
          number   segment
              1            177

 Dump area :  178 : Segment  178        
 Number of segments in area :              1
          number   segment
              1            178

 Dump area :  179 : Segment  179        
 Number of segments in area :              1
          number   segment
              1            179

 Dump area :  180 : Segment  180        
 Number of segments in area :              1
          number   segment
              1            180

 Dump area :  181 : Segment  181        
 Number of segments in area :              1
          number   segment
              1            181

 Dump area :  182 : Segment  182        
 Number of segments in area :              1
          number   segment
              1            182

 Dump area :  183 : Segment  183        
 Number of segments in area :              1
          number   segment
              1            183

 Dump area :  184 : Segment  184        
 Number of segments in area :              1
          number   segment
              1            184

 Dump area :  185 : Segment  185        
 Number of segments in area :              1
          number   segment
              1            185

 Dump area :  186 : Segment  186        
 Number of segments in area :              1
          number   segment
              1            186

 Dump area :  187 : Segment  187        
 Number of segments in area :              1
          number   segment
              1            187

 Dump area :  188 : Segment  188        
 Number of segments in area :              1
          number   segment
              1            188

 Dump area :  189 : Segment  189        
 Number of segments in area :              1
          number   segment
              1            189

 Dump area :  190 : Segment  190        
 Number of segments in area :              1
          number   segment
              1            190

 Dump area :  191 : Segment  191        
 Number of segments in area :              1
          number   segment
              1            191

 Dump area :  192 : Segment  192        
 Number of segments in area :              1
          number   segment
              1            192

 Dump area :  193 : Segment  193        
 Number of segments in area :              1
          number   segment
              1            193

 Dump area :  194 : Segment  194        
 Number of segments in area :              1
          number   segment
              1            194

 Dump area :  195 : Segment  195        
 Number of segments in area :              1
          number   segment
              1            195

 Dump area :  196 : Segment  196        
 Number of segments in area :              1
          number   segment
              1            196

 Dump area :  197 : Segment  197        
 Number of segments in area :              1
          number   segment
              1            197

 Dump area :  198 : Segment  198        
 Number of segments in area :              1
          number   segment
              1            198

 Dump area :  199 : Segment  199        
 Number of segments in area :              1
          number   segment
              1            199

 Dump area :  200 : Segment  200        
 Number of segments in area :              1
          number   segment
              1            200

 Dump area :  201 : Segment  201        
 Number of segments in area :              1
          number   segment
              1            201

 Dump area :  202 : Segment  202        
 Number of segments in area :              1
          number   segment
              1            202

 Dump area :  203 : Segment  203        
 Number of segments in area :              1
          number   segment
              1            203

 Dump area :  204 : Segment  204        
 Number of segments in area :              1
          number   segment
              1            204

 Dump area :  205 : Segment  205        
 Number of segments in area :              1
          number   segment
              1            205

 Dump area :  206 : Segment  206        
 Number of segments in area :              1
          number   segment
              1            206

 Dump area :  207 : Segment  207        
 Number of segments in area :              1
          number   segment
              1            207

 Dump area :  208 : Segment  208        
 Number of segments in area :              1
          number   segment
              1            208

 Dump area :  209 : Segment  209        
 Number of segments in area :              1
          number   segment
              1            209

 Dump area :  210 : Segment  210        
 Number of segments in area :              1
          number   segment
              1            210

 Dump area :  211 : Segment  211        
 Number of segments in area :              1
          number   segment
              1            211

 Dump area :  212 : Segment  212        
 Number of segments in area :              1
          number   segment
              1            212

 Dump area :  213 : Segment  213        
 Number of segments in area :              1
          number   segment
              1            213

 Dump area :  214 : Segment  214        
 Number of segments in area :              1
          number   segment
              1            214

 Dump area :  215 : Segment  215        
 Number of segments in area :              1
          number   segment
              1            215

 Dump area :  216 : Segment  216        
 Number of segments in area :              1
          number   segment
              1            216

 Dump area :  217 : Segment  217        
 Number of segments in area :              1
          number   segment
              1            217

 Dump area :  218 : Segment  218        
 Number of segments in area :              1
          number   segment
              1            218

 Dump area :  219 : Segment  219        
 Number of segments in area :              1
          number   segment
              1            219

 Dump area :  220 : Segment  220        
 Number of segments in area :              1
          number   segment
              1            220

 Dump area :  221 : Segment  221        
 Number of segments in area :              1
          number   segment
              1            221

 Dump area :  222 : Segment  222        
 Number of segments in area :              1
          number   segment
              1            222

 Dump area :  223 : Segment  223        
 Number of segments in area :              1
          number   segment
              1            223

 Dump area :  224 : Segment  224        
 Number of segments in area :              1
          number   segment
              1            224

 Dump area :  225 : Segment  225        
 Number of segments in area :              1
          number   segment
              1            225

 Dump area :  226 : Segment  226        
 Number of segments in area :              1
          number   segment
              1            226

 Dump area :  227 : Segment  227        
 Number of segments in area :              1
          number   segment
              1            227

 Dump area :  228 : Segment  228        
 Number of segments in area :              1
          number   segment
              1            228

 Dump area :  229 : Segment  229        
 Number of segments in area :              1
          number   segment
              1            229

 Closing file: ..\work\segment.dat                                                           

 Continuing on file: \SBK212\SBI.LIT\19\OUTLOCWQ.DAT                                               

 Closing file: \SBK212\SBI.LIT\19\OUTLOCWQ.DAT                                               

 Continuing on file: delwaq.inp                                                                    

 Transects:
 option selected for input : 2
 No transects used.

 Including file: \SBK212\SBI.LIT\WORK\DELWAQ2.INP                                                                                                                                                                                                                                                                                                                                                                                                                                                                                                                                                                                                                                                                                                                                                                                                                                                                                                                                                                                                        


 Monitoring  timings :
 Start time : 0Y-  0D- 0H- 0M- 0S 
 Stop time  : 0Y- 31D- 0H- 0M- 0S 
 Time step  : 0Y-  0D- 3H- 0M- 0S 


 Output      timings :
 Start time : 0Y-  0D- 0H- 0M- 0S 
 Stop time  : 0Y- 31D- 0H- 0M- 0S 
 Time step  : 0Y-  0D- 0H- 5M- 0S 


 History     timings :
 Start time : 0Y-  0D- 0H- 0M- 0S 
 Stop time  : 0Y- 31D- 0H- 0M- 0S 
 Time step  : 0Y-  0D- 0H- 5M- 0S 

 Closing file: \SBK212\SBI.LIT\WORK\DELWAQ2.INP                                              

 Continuing on file: delwaq.inp                                                                    

 *********************************************************** B L O C K - 2 *****


 Including file: ..\work\nrofsegm.dat                                                                                                                                                                                                                                                                                                                                                                                                                                                                                                                                                                                                                                                                                                                                                                                                                                                                                                                                                                                                                    


 Number of segments :            229

 Closing file: ..\work\nrofsegm.dat                                                          

 Continuing on file: delwaq.inp                                                                    

 NO process decomposition selected

 option selected for grid layout : 2
 Grid layout not used.

  0 blocks of time independent feature contribution

 option for time dependent attributes   0
 NO time dependent attributes
 No first attribute set, using default 1
 No second attribute set, using default 0

 Volumes:

 Including file: flowfil.mod                                                                                                                                                                                                                                                                                                                                                                                                                                                                                                                                                                                                                                                                                                                                                                                                                                                                                                                                                                                                                             

 First  selected option   :      -2

 Closing file: flowfil.mod                                                                   

 Continuing on file: delwaq.inp                                                                    

 Information from unformatted intermediate file.
 Filename is: ..\work\Volume.dat                                                                                                                                                                                                                                             
 WARNING file does not exist.
 Filename: ..\work\Volume.dat                                                                                                                                                                                                                                             

 *********************************************************** B L O C K - 3 *****


 Including file: ..\work\nrofexch.dat                                                                                                                                                                                                                                                                                                                                                                                                                                                                                                                                                                                                                                                                                                                                                                                                                                                                                                                                                                                                                    


 Dimensions of the system :
 Number of exchanges 1st direction :     474
 Number of exchanges 2nd direction :       0
 Number of exchanges 3rd direction :       0
 Total number of exchanges         :     474

 Closing file: ..\work\nrofexch.dat                                                          

 Continuing on file: delwaq.inp                                                                    

 Number of dispersion arrays       :       1

 Including file: ..\work\dispersf.dat                                                                                                                                                                                                                                                                                                                                                                                                                                                                                                                                                                                                                                                                                                                                                                                                                                                                                                                                                                                                                    

 Item nr:       names:
     1          Dispersion          
 

 Closing file: ..\work\dispersf.dat                                                          

 Continuing on file: delwaq.inp                                                                    

 Number of velocity arrays         :       0
 System dispersion velocity
   nr.      nr.      nr.   
     1        1        0
     2        1        0
     3        1        0
     4        1        0
     5        1        0
     6        1        0
     7        1        0
     8        1        0
     9        1        0
    10        1        0
    11        1        0
    12        1        0
    13        1        0
    14        1        0
    15        1        0
    16        1        0
    17        1        0
    18        1        0
    19        1        0
    20        1        0
    21        1        0

 Input option                      :       1

 Option selected for pointers      :      -1

 Including file: ..\work\Pointer.dat                                                                                                                                                                                                                                            

           First direction :
   Item nr.  From      To  From-1    To+1
       1       1      19       2      24
       2       1      11       2      10
       3       1      26       2      27
       4      19      11      24      10
       5      19      26      24      27
       6      11      26      10      27
       7       8     183       9     176
       8       8     176       9     175
       9     183     176       8     175
      10      19      22      24      21
      11      19      18      24      17
      12      19      24      18      25
      13      22      18      21      17
      14      22      24      21      25
      15      18      24      17      25
      16      24      28      25      86
      17      24      25      28      37
      18      28      25      86      37
      19      25      23      37      37
      20      25      37      23      59
      21      23      37      25      59
      22      26      52      27      79
      23      26      27      52      86
      24      52      27      79      86
      25      27      28      86      86
      26      27      86      28      87
      27      28      86      27      87
      28     228      36      54      35
      29     228      43      54      42
      30      36      43      35      42
      31      37      59      23      60
      32      38      46      39      51
      33      38      44      39      51
      34      38      45      39      51
      35      46      44      51      51
      36      46      45      51      51
      37      44      45      51      51
      38      39      38      40      45
      39      44      45      51      51
      40      44      46      51      51
      41      44      51      46      50
      42      45      46      51      51
      43      45      51      46      50
      44      46      51      45      50
      45      47      52      48      79
      46      47      79      48      80
      47      52      79      47      80
      48      57      53      78      54
      49      55      53      57      54
      50      55      54      57     228
      51      53      54      55     228
      52      57      55      78      54
      53      57     111      78     126
      54      58     213     119     214
      55      58     119     213     118
      56     213     119     214     118
      57      72      74      71      75
      58      72      73      71      75
      59      74      73      75      75
      60      74      73      75      75
      61      74      75      73      76
      62      73      75      74      76
      63      76      77      75     100
      64     108      77     107     100
      65     108     100     107     101
      66      77     100     108     101
      67      78     103      57      85
      68      78     103      57      85
      69     102      99     101      98
      70     102     104     101     229
      71      99     104      98     229
      72     103     229      85     104
      73     103     125      85     229
      74     229     125     104     103
      75     105     110      57     109
      76     105     114      57     113
      77     110     114     109     113
      78     109     111     110     126
      79     109     115     110     116
      80     109     126     110     139
      81     111     115     126     116
      82     111     126     115     139
      83     115     126     116     139
      84     112     115     113     116
      85     112     116     113     123
      86     115     116     112     123
      87     116     123     115     122
      88      57     136      78     135
      89     117     120     118     121
      90     117     124     118     227
      91     120     124     121     227
      92     124     137     227     154
      93     124     177     227     227
      94     124     227     177     177
      95     137     177     154     227
      96     137     227     154     177
      97     177     227     137     137
      98     126     127     139     151
      99     126     139     127     138
     100     127     139     151     138
     101     128     127     129     151
     102     128     151     129     152
     103     127     151     128     152
     104     137     142     154     143
     105     137     154     142     153
     106     142     154     143     153
     107     138     152     139     156
     108     138     150     139     149
     109     152     150     156     149
     110     139     138     127     150
     111     140     141     155     159
     112     140     159     155     158
     113     141     159     140     158
     114     143     142     144     154
     115     151     156     152     160
     116     151     152     156     156
     117     156     152     160     151
     118     153     178     154     155
     119     153     155     154     140
     120     178     155     153     140
     121     155     140     178     159
     122     157     160     158     161
     123     157     156     158     160
     124     160     156     161     157
     125     170      20     171      21
     126     170     171      20      20
     127      20     171      21     170
     128     172     180     173     181
     129     172     181     173     184
     130     180     181     172     184
     131     179     173     226     172
     132     179     172     226     173
     133     173     172     179     179
     134     181     182     184     184
     135     181     184     182     191
     136     182     184     181     191
     137     184     186     191     194
     138     184     191     186     190
     139     186     191     194     190
     140     186     185     194     194
     141     186     194     185     202
     142     185     194     186     202
     143     187     193     188       7
     144     187     201     188     200
     145     193     201       7     200
     146     192     222       0       7
     147     193      29       7      30
     148     193     222       7       7
     149     193       7     222       6
     150      29     222      30       7
     151      29       7      30       6
     152     222       7      29       6
     153     194     221     202     202
     154     194     202     221     203
     155     221     202     194     203
     156     195     205     196     206
     157     195     204     196     203
     158     205     204     206     203
     159     202     203     221     220
     160     204     220     203     219
     161     204     203     220     220
     162     220     203     219     204
     163     206     205     207     204
     164     196     195     197     204
     165     214     213     215     119
     166      54     228      53      43
     167       2       1       3      26
     168      48      47      49      79
     169      36      35      43      34
     170     129     128     130     151
     171      98      99      97     104
     172      13      12      14       0
     173       9       8      10     176
     174       3       2       4       1
     175       4       3       5       2
     176       5       4       6       3
     177       6       5       7       4
     178      75      76      73      77
     179      79      80      52      81
     180      92      93      91      94
     181      91      92      90      93
     182      89      90      88      91
     183     101     102     100     104
     184     104     229      99     125
     185      57     105      78     114
     186     110     109     114     126
     187     113     112     114     116
     188     118     117     119     124
     189     121     120     122     124
     190     122     121     123     120
     191     123     122     116     121
     192     131     130     132     129
     193     145     144     146     143
     194     146     145     147     144
     195     148     147     149     146
     196     154     153     142     155
     197     158     157     159     156
     198     161     160     162     156
     199     162     161     163     160
     200     163     162     164     161
     201     164     163     165     162
     202     165     164     166     163
     203     166     165     167     164
     204     175     174     176       0
     205     223     226     179     179
     206     223     179     226     226
     207     226     179     223     223
     208     188     187     189     201
     209     198     197     199     196
     210     209     208     210     207
     211     217     216     218     215
     212     219     218     220     217
     213      16      15      17      14
     214       7       6     222       5
     215     149     148     150     147
     216      88      89      87      90
     217      43      42      36      41
     218     169     168     225     167
     219      32      31      33      30
     220      18      17      24      16
     221     211     210     212     209
     222     150     149     152     148
     223      80      81      79      82
     224      66      67      65      68
     225     135     134     136     133
     226     224     225     169     169
     227     224     169     225     225
     228     225     169     224     224
     229     136     135      57     134
     230      57     212      78     211
     231      15      14      16      13
     232      22      21      24      20
     233      21      20      22     171
     234      56      57       0      78
     235      57      56      78       0
     236      67      68      66      69
     237      62      63      61      64
     238      63      64      62      65
     239      60      61      59      62
     240      81      82      80      83
     241      82      83      81      84
     242      96      97      95      98
     243      95      96      94      97
     244      93      94      92      95
     245     147     146     148     145
     246     159     158     141     157
     247     189     188     190     187
     248     191     190     186     189
     249     199     198     200     197
     250     200     199     201     198
     251     201     200     193     199
     252     207     206     208     205
     253     216     215     217     214
     254      17      16      18      15
     255      49      48      50      47
     256      40      39      41      38
     257      11      10      26       9
     258     218     217     219     216
     259     168     167     169     166
     260     132     131     133     130
     261     210     209     211     208
     262      68      69      67      70
     263      64      65      63      66
     264      33      32      34      31
     265      86      87      28      88
     266      42      41      43      40
     267     167     166     168     165
     268     134     133     135     132
     269     144     143     145     142
     270      71      72      70      73
     271     107     108     106     100
     272      34      33      35      32
     273      87      88      86      89
     274      50      49      51      48
     275      10       9      11       8
     276     220     219     203     218
     277     208     207     209     206
     278     119     118     213     117
     279      69      70      68      71
     280      83      84      82      85
     281      59      60      37      61
     282      30      29      31       7
     283      90      91      89      92
     284      31      30      32      29
     285      61      62      60      63
     286      97      98      96      99
     287     106     107       0     108
     288      70      71      69      72
     289     130     129     131     128
     290     212     211      57     210
     291     215     214     216     213
     292     114     113     110     112
     293     100     101      77     102
     294      94      95      93      96
     295      65      66      64      67
     296      35      34      36      33
     297     190     189     191     188
     298      14      13      15      12
     299      51      50      46      49
     300      41      40      42      39
     301     176     175     183     174
     302     197     196     198     195
     303     133     132     134     131
     304      84      85      83     103
     305      85     103      84     125
     306      57      78      56     103
     307      -1      23      -1      37
     308      -2      78      -2      57
     309      -3     106      -3     107
     310      -4     125      -4     229
     311      -5     171      -5      20
     312      -6     173      -6     172
     313      -7     177      -7     227
     314      -8     178      -8     155
     315      -9     182      -9     184
     316     -10     183     -10     176
     317     -11     152     -11     156
     318     -12     207     -12     208
     319     -13     196     -13     197
     320     -14     137     -14     154
     321     -15       8     -15       9
     322     -16      98     -16      97
     323     -17     129     -17     130
     324     -18      96     -18      95
     325     -19       3     -19       4
     326     -20       3     -20       4
     327     -21       6     -21       7
     328     -22       6     -22       7
     329     -23      10     -23       9
     330     -24      13     -24      14
     331     -25      21     -25      20
     332     -26      21     -26      20
     333     -27      20     -27      21
     334     -28      20     -28      21
     335     -29      35     -29      34
     336     -30      40     -30      41
     337     -31     221     -31     202
     338     -32     180     -32     181
     339     -33      95     -33      94
     340     -34      91     -34      90
     341     -35     101     -35     100
     342     -36     110     -36     109
     343     -37     113     -37     114
     344     -38     113     -38     114
     345     -39     118     -39     119
     346     -40     121     -40     122
     347     -41     122     -41     123
     348     -42     122     -42     123
     349     -43     122     -43     123
     350     -44     125     -44     229
     351     -45     125     -45     229
     352     -46     125     -46     229
     353     -47     148     -47     149
     354     -48     154     -48     153
     355     -49     158     -49     159
     356     -50     158     -50     159
     357     -51     159     -51     158
     358     -52     159     -52     158
     359     -53     161     -53     162
     360     -54     161     -54     162
     361     -55     162     -55     163
     362     -56     162     -56     163
     363     -57     162     -57     163
     364     -58     167     -58     166
     365     -59     141     -59     159
     366     -60     223     -60     179
     367     -61     188     -61     189
     368     -62     189     -62     190
     369     -63     189     -63     190
     370     -64     190     -64     189
     371     -65     198     -65     199
     372     -66     200     -66     201
     373     -67     217     -67     218
     374     -68      49     -68      50
     375     -69     133     -69     132
     376     -70      80     -70      81
     377     -71      20     -71      21
     378     -72       7     -72       6
     379     -73     220     -73     219
     380     -74     169     -74     225
     381     -75     107     -75     106
     382     -76      57     -76      78
     383     -77      87     -77      88
     384     -78     119     -78     118
     385     -79     113     -79     114
     386     -80      81     -80      82
     387     -81     150     -81     149
     388     -82     139     -82     138
     389     -83      50     -83      51
     390     -84       3     -84       4
     391     -85       4     -85       5
     392     -86       6     -86       7
     393     -87       7     -87       6
     394     -88      16     -88      17
     395     -89      57     -89      78
     396     -90      66     -90      65
     397     -91      60     -91      59
     398     -92      57     -92      78
     399     -93      57     -93      78
     400     -94      93     -94      94
     401     -95      88     -95      87
     402     -96     110     -96     109
     403     -97     118     -97     119
     404     -98     122     -98     123
     405     -99     125     -99     229
     406    -100     146    -100     147
     407    -101     158    -101     159
     408    -102     164    -102     165
     409    -103     166    -103     167
     410    -104     175    -104     176
     411    -105     211    -105     212
     412    -106      89    -106      88
     413    -107      48    -107      49
     414    -108      39    -108      40
     415    -109     131    -109     132
     416    -110     209    -110     210
     417    -111     215    -111     214
     418    -112      69    -112      70
     419    -113      76    -113      75
     420    -114      83    -114      84
     421    -115      57    -115      78
     422    -116      65    -116      66
     423    -117      33    -117      34
     424    -118      13    -118      14
     425    -119      50    -119      51
     426    -120      41    -120      40
     427    -121     198    -121     199
     428    -122     206    -122     207
     429    -123     143    -123     144
     430    -124     119    -124     118
     431    -125      72    -125      71
     432    -126      57    -126      78
     433    -127      64    -127      65
     434    -128      34    -128      35
     435    -129      14    -129      13
     436    -130      42    -130      41
     437    -131       9    -131      10
     438    -132     219    -132     220
     439    -133     135    -133     136
     440    -134     145    -134     146
     441    -135     139    -135     138
     442    -136      70    -136      71
     443    -137     107    -137     106
     444    -138      97    -138      98
     445    -139      30    -139      31
     446    -140     190    -140     189
     447    -141     210    -141     209
     448    -142      17    -142      16
     449    -143      31    -143      30
     450    -144      62    -144      61
     451    -145      84    -145      85
     452    -146      71    -146      70
     453    -147     169    -147     225
     454    -148     217    -148     218
     455    -149     200    -149     201
     456    -150      10    -150       9
     457    -151      40    -151      41
     458    -152      49    -152      50
     459    -153       2    -153       3
     460    -154     214    -154     215
     461    -155      68    -155      69
     462    -156      87    -156      88
     463    -157     220    -157     219
     464    -158     167    -158     166
     465    -159     132    -159     133
     466    -160     125    -160     229
     467    -161      58    -161     119
     468    -162     192    -162     222
     469    -163     224    -163     169
     470    -164     225    -164     169
     471    -165     226    -165     179
     472    -166     227    -166     177
     473    -167     170    -167     171
     474    -168      57    -168      78

 Number of boundaries  : 168


 boundary  exchange    from        to
  number    number    segment    segment
      1       307        -1        23
      2       308        -2        78
      3       309        -3       106
      4       310        -4       125
      5       311        -5       171
      6       312        -6       173
      7       313        -7       177
      8       314        -8       178
      9       315        -9       182
     10       316       -10       183
     11       317       -11       152
     12       318       -12       207
     13       319       -13       196
     14       320       -14       137
     15       321       -15         8
     16       322       -16        98
     17       323       -17       129
     18       324       -18        96
     19       325       -19         3
     20       326       -20         3
     21       327       -21         6
     22       328       -22         6
     23       329       -23        10
     24       330       -24        13
     25       331       -25        21
     26       332       -26        21
     27       333       -27        20
     28       334       -28        20
     29       335       -29        35
     30       336       -30        40
     31       337       -31       221
     32       338       -32       180
     33       339       -33        95
     34       340       -34        91
     35       341       -35       101
     36       342       -36       110
     37       343       -37       113
     38       344       -38       113
     39       345       -39       118
     40       346       -40       121
     41       347       -41       122
     42       348       -42       122
     43       349       -43       122
     44       350       -44       125
     45       351       -45       125
     46       352       -46       125
     47       353       -47       148
     48       354       -48       154
     49       355       -49       158
     50       356       -50       158
     51       357       -51       159
     52       358       -52       159
     53       359       -53       161
     54       360       -54       161
     55       361       -55       162
     56       362       -56       162
     57       363       -57       162
     58       364       -58       167
     59       365       -59       141
     60       366       -60       223
     61       367       -61       188
     62       368       -62       189
     63       369       -63       189
     64       370       -64       190
     65       371       -65       198
     66       372       -66       200
     67       373       -67       217
     68       374       -68        49
     69       375       -69       133
     70       376       -70        80
     71       377       -71        20
     72       378       -72         7
     73       379       -73       220
     74       380       -74       169
     75       381       -75       107
     76       382       -76        57
     77       383       -77        87
     78       384       -78       119
     79       385       -79       113
     80       386       -80        81
     81       387       -81       150
     82       388       -82       139
     83       389       -83        50
     84       390       -84         3
     85       391       -85         4
     86       392       -86         6
     87       393       -87         7
     88       394       -88        16
     89       395       -89        57
     90       396       -90        66
     91       397       -91        60
     92       398       -92        57
     93       399       -93        57
     94       400       -94        93
     95       401       -95        88
     96       402       -96       110
     97       403       -97       118
     98       404       -98       122
     99       405       -99       125
    100       406      -100       146
    101       407      -101       158
    102       408      -102       164
    103       409      -103       166
    104       410      -104       175
    105       411      -105       211
    106       412      -106        89
    107       413      -107        48
    108       414      -108        39
    109       415      -109       131
    110       416      -110       209
    111       417      -111       215
    112       418      -112        69
    113       419      -113        76
    114       420      -114        83
    115       421      -115        57
    116       422      -116        65
    117       423      -117        33
    118       424      -118        13
    119       425      -119        50
    120       426      -120        41
    121       427      -121       198
    122       428      -122       206
    123       429      -123       143
    124       430      -124       119
    125       431      -125        72
    126       432      -126        57
    127       433      -127        64
    128       434      -128        34
    129       435      -129        14
    130       436      -130        42
    131       437      -131         9
    132       438      -132       219
    133       439      -133       135
    134       440      -134       145
    135       441      -135       139
    136       442      -136        70
    137       443      -137       107
    138       444      -138        97
    139       445      -139        30
    140       446      -140       190
    141       447      -141       210
    142       448      -142        17
    143       449      -143        31
    144       450      -144        62
    145       451      -145        84
    146       452      -146        71
    147       453      -147       169
    148       454      -148       217
    149       455      -149       200
    150       456      -150        10
    151       457      -151        40
    152       458      -152        49
    153       459      -153         2
    154       460      -154       214
    155       461      -155        68
    156       462      -156        87
    157       463      -157       220
    158       464      -158       167
    159       465      -159       132
    160       466      -160       125
    161       467      -161        58
    162       468      -162       192
    163       469      -163       224
    164       470      -164       225
    165       471      -165       226
    166       472      -166       227
    167       473      -167       170
    168       474      -168        57

 Size of the big matrix for fast solvers is:        780

 Dispersion:

 Closing file: ..\work\Pointer.dat                                                           

 Continuing on file: delwaq.inp                                                                    

 Including file: \SBK212\SBI.LIT\WORK\DELWAQ3.INP                                                                                                                                                                                                                                                                                                                                                                                                                                                                                                                                                                                                                                                                                                                                                                                                                                                                                                                                                                                                        

 First  selected option   :       1
 Information from the standard input file.
 Constant values without defaults 

 Scale factors:
                 1           2           3
              1.0000E+00  1.0000E+00  1.0000E+00
 Unscaled values:
         1    0.0000E+00  0.0000E+00  0.0000E+00

 Closing file: \SBK212\SBI.LIT\WORK\DELWAQ3.INP                                              

 Continuing on file: delwaq.inp                                                                    

 Including file: ..\work\disperx.dat                                                                                                                                                                                                                                                                                                                                                                                                                                                                                                                                                                                                                                                                                                                                                                                                                                                                                                                                                                                                                     
 Second selected option   :       1

 First  direction:
 Constant values without defaults 

 Scale factors:
                 1
              1.0000E+00
 Unscaled values:
         1    0.0000E+00
         2    0.0000E+00
         3    0.0000E+00
         4    0.0000E+00
         5    0.0000E+00
         6    0.0000E+00
         7    0.0000E+00
         8    0.0000E+00
         9    0.0000E+00
        10    0.0000E+00
        11    0.0000E+00
        12    0.0000E+00
        13    0.0000E+00
        14    0.0000E+00
        15    0.0000E+00
        16    0.0000E+00
        17    0.0000E+00
        18    0.0000E+00
        19    0.0000E+00
        20    0.0000E+00
        21    0.0000E+00
        22    0.0000E+00
        23    0.0000E+00
        24    0.0000E+00
        25    0.0000E+00
        26    0.0000E+00
[...]
  136               Boundary name     136                   onverhard           
  137               Boundary name     137                   onverhard           
  138               Boundary name     138                   onverhard           
  139               Boundary name     139                   onverhard           
  140               Boundary name     140                   Lateral inflow      
  141               Boundary name     141                   Lateral inflow      
  142               Boundary name     142                   Lateral inflow      
  143               Boundary name     143                   Lateral inflow      
  144               Boundary name     144                   Lateral inflow      
  145               Boundary name     145                   Lateral inflow      
  146               Boundary name     146                   Lateral inflow      
  147               Boundary name     147                   Lateral inflow      
  148               Boundary name     148                   Lateral inflow      
  149               Boundary name     149                   Lateral inflow      
  150               Boundary name     150                   Lateral inflow      
  151               Boundary name     151                   Lateral inflow      
  152               Boundary name     152                   Lateral inflow      
  153               Boundary name     153                   Lateral inflow      
  154               Boundary name     154                   Lateral inflow      
  155               Boundary name     155                   Lateral inflow      
  156               Boundary name     156                   Lateral inflow      
  157               Boundary name     157                   Lateral inflow      
  158               Boundary name     158                   Lateral inflow      
  159               Boundary name     159                   Lateral inflow      
  160               Boundary name     160                   Lateral inflow      
  161               Boundary name     161                   Boundary Flow       
  162               Boundary name     162                   Boundary Flow       
  163               Boundary name     163                   Boundary Flow       
  164               Boundary name     164                   Boundary Flow       
  165               Boundary name     165                   Boundary Flow       
  166               Boundary name     166                   REST_NicoBroek      
  167               Boundary name     167                   Boundary Flow       
  168               Boundary name     168                   SuppletieSLP        
 
 Number of different boundary types:   19
 Type:  Type-string
     1  REST_Westlndgr      
     2  verhard             
     3  Lateral inflow      
     4  Cramersluis         
     5  Heemstedesluis      
     6  Akersluis           
     7  NicoBroekhuizen     
     8  Geuzenveld          
     9  Plesmanlaan         
    10  Louwesweg           
    11  onverhard           
    12  neerslag            
    13  Boundary Flow       
    14  onverhard-slp       
    15  Multatuli           
    16  neerslag-slp        
    17  verhard-slp         
    18  REST_NicoBroek      
    19  SuppletieSLP        
 

 Closing file: ..\work\Boundfra.id                                                           

 Continuing on file: delwaq.inp                                                                    

 Including file: ..\work\tatcherharlemen.wq                                                                                                                                                                                                                                                                                                                                                                                                                                                                                                                                                                                                                                                                                                                                                                                                                                                                                                                                                                                                              

 Time lag option:  0
 No time lags

 Boundary concentrations

 Closing file: ..\work\tatcherharlemen.wq                                                    

 Continuing on file: delwaq.inp                                                                    

 Including file: ..\work\Boundfra.dat                                                                                                                                                                                                                                                                                                                                                                                                                                                                                                                                                                                                                                                                                                                                                                                                                                                                                                                                                                                                                    

 BLOCKED per ITEM:
 Input BOUNDARIES nr:    1 is BOUNDARIES nr:    3 with type: Lateral inflow      

 CONCENTRATIONs within the item blocks:
 Input CONCENTR.  nr:    1 is CONCENTR.  nr:    1 with ID  : Check               
 Input CONCENTR.  nr:    2 is CONCENTR.  nr:    3 with ID  : Lateral inflow      

 DATA grouped in    1 blocks of    2 Substance 
 Constant values in this block.
 Substance      1           3
 boundary     Check       Lateral in  
         3    1.0000E+00  1.0000E+00

 ====> input item completed <==== 



 BLOCKED per ITEM:
 Input BOUNDARIES nr:    1 is BOUNDARIES nr:   13 with type: Boundary Flow       

 CONCENTRATIONs within the item blocks:
 Input CONCENTR.  nr:    1 is CONCENTR.  nr:    1 with ID  : Check               
 Input CONCENTR.  nr:    2 is CONCENTR.  nr:    4 with ID  : Boundary Flow       

 DATA grouped in    1 blocks of    2 Substance 
 Constant values in this block.
 Substance      1           4
 boundary     Check       Boundary F  
        13    1.0000E+00  1.0000E+00

 ====> input item completed <==== 



 BLOCKED per ITEM:
 Input BOUNDARIES nr:    1 is BOUNDARIES nr:    8 with type: Geuzenveld          

 CONCENTRATIONs within the item blocks:
 Input CONCENTR.  nr:    1 is CONCENTR.  nr:    1 with ID  : Check               
 Input CONCENTR.  nr:    2 is CONCENTR.  nr:    5 with ID  : Geuzenveld          

 DATA grouped in    1 blocks of    2 Substance 
 Constant values in this block.
 Substance      1           5
 boundary     Check       Geuzenveld  
         8    1.0000E+00  1.0000E+00

 ====> input item completed <==== 



 BLOCKED per ITEM:
 Input BOUNDARIES nr:    1 is BOUNDARIES nr:   10 with type: Louwesweg           

 CONCENTRATIONs within the item blocks:
 Input CONCENTR.  nr:    1 is CONCENTR.  nr:    1 with ID  : Check               
 Input CONCENTR.  nr:    2 is CONCENTR.  nr:    6 with ID  : Louwesweg           

 DATA grouped in    1 blocks of    2 Substance 
 Constant values in this block.
 Substance      1           6
 boundary     Check       Louwesweg   
        10    1.0000E+00  1.0000E+00

 ====> input item completed <==== 



 BLOCKED per ITEM:
 Input BOUNDARIES nr:    1 is BOUNDARIES nr:    9 with type: Plesmanlaan         

 CONCENTRATIONs within the item blocks:
 Input CONCENTR.  nr:    1 is CONCENTR.  nr:    1 with ID  : Check               
 Input CONCENTR.  nr:    2 is CONCENTR.  nr:    7 with ID  : Plesmanlaan         

 DATA grouped in    1 blocks of    2 Substance 
 Constant values in this block.
 Substance      1           7
 boundary     Check       Plesmanlaa  
         9    1.0000E+00  1.0000E+00

 ====> input item completed <==== 



 BLOCKED per ITEM:
 Input BOUNDARIES nr:    1 is BOUNDARIES nr:    7 with type: NicoBroekhuizen     

 CONCENTRATIONs within the item blocks:
 Input CONCENTR.  nr:    1 is CONCENTR.  nr:    1 with ID  : Check               
 Input CONCENTR.  nr:    2 is CONCENTR.  nr:    8 with ID  : NicoBroekhuizen     

 DATA grouped in    1 blocks of    2 Substance 
 Constant values in this block.
 Substance      1           8
 boundary     Check       NicoBroekh  
         7    1.0000E+00  1.0000E+00

 ====> input item completed <==== 



 BLOCKED per ITEM:
 Input BOUNDARIES nr:    1 is BOUNDARIES nr:    4 with type: Cramersluis         

 CONCENTRATIONs within the item blocks:
 Input CONCENTR.  nr:    1 is CONCENTR.  nr:    1 with ID  : Check               
 Input CONCENTR.  nr:    2 is CONCENTR.  nr:    9 with ID  : Cramersluis         

 DATA grouped in    1 blocks of    2 Substance 
 Constant values in this block.
 Substance      1           9
 boundary     Check       Cramerslui  
         4    1.0000E+00  1.0000E+00

 ====> input item completed <==== 



 BLOCKED per ITEM:
 Input BOUNDARIES nr:    1 is BOUNDARIES nr:    5 with type: Heemstedesluis      

 CONCENTRATIONs within the item blocks:
 Input CONCENTR.  nr:    1 is CONCENTR.  nr:    1 with ID  : Check               
 Input CONCENTR.  nr:    2 is CONCENTR.  nr:   10 with ID  : Heemstedesluis      

 DATA grouped in    1 blocks of    2 Substance 
 Constant values in this block.
 Substance      1          10
 boundary     Check       Heemstedes  
         5    1.0000E+00  1.0000E+00

 ====> input item completed <==== 



 BLOCKED per ITEM:
 Input BOUNDARIES nr:    1 is BOUNDARIES nr:    6 with type: Akersluis           

 CONCENTRATIONs within the item blocks:
 Input CONCENTR.  nr:    1 is CONCENTR.  nr:    1 with ID  : Check               
 Input CONCENTR.  nr:    2 is CONCENTR.  nr:   11 with ID  : Akersluis           

 DATA grouped in    1 blocks of    2 Substance 
 Constant values in this block.
 Substance      1          11
 boundary     Check       Akersluis   
         6    1.0000E+00  1.0000E+00

 ====> input item completed <==== 



 BLOCKED per ITEM:
 Input BOUNDARIES nr:    1 is BOUNDARIES nr:   12 with type: neerslag            

 CONCENTRATIONs within the item blocks:
 Input CONCENTR.  nr:    1 is CONCENTR.  nr:    1 with ID  : Check               
 Input CONCENTR.  nr:    2 is CONCENTR.  nr:   12 with ID  : neerslag            

 DATA grouped in    1 blocks of    2 Substance 
 Constant values in this block.
 Substance      1          12
 boundary     Check       neerslag    
        12    1.0000E+00  1.0000E+00

 ====> input item completed <==== 



 BLOCKED per ITEM:
 Input BOUNDARIES nr:    1 is BOUNDARIES nr:   17 with type: verhard-slp         

 CONCENTRATIONs within the item blocks:
 Input CONCENTR.  nr:    1 is CONCENTR.  nr:    1 with ID  : Check               
 Input CONCENTR.  nr:    2 is CONCENTR.  nr:   13 with ID  : verhard-slp         

 DATA grouped in    1 blocks of    2 Substance 
 Constant values in this block.
 Substance      1          13
 boundary     Check       verhard-sl  
        17    1.0000E+00  1.0000E+00

 ====> input item completed <==== 



 BLOCKED per ITEM:
 Input BOUNDARIES nr:    1 is BOUNDARIES nr:    2 with type: verhard             

 CONCENTRATIONs within the item blocks:
 Input CONCENTR.  nr:    1 is CONCENTR.  nr:    1 with ID  : Check               
 Input CONCENTR.  nr:    2 is CONCENTR.  nr:   14 with ID  : verhard             

 DATA grouped in    1 blocks of    2 Substance 
 Constant values in this block.
 Substance      1          14
 boundary     Check       verhard     
         2    1.0000E+00  1.0000E+00

 ====> input item completed <==== 



 BLOCKED per ITEM:
 Input BOUNDARIES nr:    1 is BOUNDARIES nr:   14 with type: onverhard-slp       

 CONCENTRATIONs within the item blocks:
 Input CONCENTR.  nr:    1 is CONCENTR.  nr:    1 with ID  : Check               
 Input CONCENTR.  nr:    2 is CONCENTR.  nr:   15 with ID  : onverhard-slp       

 DATA grouped in    1 blocks of    2 Substance 
 Constant values in this block.
 Substance      1          15
 boundary     Check       onverhard-  
        14    1.0000E+00  1.0000E+00

 ====> input item completed <==== 



 BLOCKED per ITEM:
 Input BOUNDARIES nr:    1 is BOUNDARIES nr:   11 with type: onverhard           

 CONCENTRATIONs within the item blocks:
 Input CONCENTR.  nr:    1 is CONCENTR.  nr:    1 with ID  : Check               
 Input CONCENTR.  nr:    2 is CONCENTR.  nr:   16 with ID  : onverhard           

 DATA grouped in    1 blocks of    2 Substance 
 Constant values in this block.
 Substance      1          16
 boundary     Check       onverhard   
        11    1.0000E+00  1.0000E+00

 ====> input item completed <==== 



 BLOCKED per ITEM:
 Input BOUNDARIES nr:    1 is BOUNDARIES nr:   16 with type: neerslag-slp        

 CONCENTRATIONs within the item blocks:
 Input CONCENTR.  nr:    1 is CONCENTR.  nr:    1 with ID  : Check               
 Input CONCENTR.  nr:    2 is CONCENTR.  nr:   17 with ID  : neerslag-slp        

 DATA grouped in    1 blocks of    2 Substance 
 Constant values in this block.
 Substance      1          17
 boundary     Check       neerslag-s  
        16    1.0000E+00  1.0000E+00

 ====> input item completed <==== 



 BLOCKED per ITEM:
 Input BOUNDARIES nr:    1 is BOUNDARIES nr:   18 with type: REST_NicoBroek      

 CONCENTRATIONs within the item blocks:
 Input CONCENTR.  nr:    1 is CONCENTR.  nr:    1 with ID  : Check               
 Input CONCENTR.  nr:    2 is CONCENTR.  nr:   18 with ID  : REST_NicoBroek      

 DATA grouped in    1 blocks of    2 Substance 
 Constant values in this block.
 Substance      1          18
 boundary     Check       REST_NicoB  
        18    1.0000E+00  1.0000E+00

 ====> input item completed <==== 



 BLOCKED per ITEM:
 Input BOUNDARIES nr:    1 is BOUNDARIES nr:    1 with type: REST_Westlndgr      

 CONCENTRATIONs within the item blocks:
 Input CONCENTR.  nr:    1 is CONCENTR.  nr:    1 with ID  : Check               
 Input CONCENTR.  nr:    2 is CONCENTR.  nr:   19 with ID  : REST_Westlndgr      

 DATA grouped in    1 blocks of    2 Substance 
 Constant values in this block.
 Substance      1          19
 boundary     Check       REST_Westl  
         1    1.0000E+00  1.0000E+00

 ====> input item completed <==== 



 BLOCKED per ITEM:
 Input BOUNDARIES nr:    1 is BOUNDARIES nr:   15 with type: Multatuli           

 CONCENTRATIONs within the item blocks:
 Input CONCENTR.  nr:    1 is CONCENTR.  nr:    1 with ID  : Check               
 Input CONCENTR.  nr:    2 is CONCENTR.  nr:   20 with ID  : Multatuli           

 DATA grouped in    1 blocks of    2 Substance 
 Constant values in this block.
 Substance      1          20
 boundary     Check       Multatuli   
        15    1.0000E+00  1.0000E+00

 ====> input item completed <==== 



 BLOCKED per ITEM:
 Input BOUNDARIES nr:    1 is BOUNDARIES nr:   19 with type: SuppletieSLP        

 CONCENTRATIONs within the item blocks:
 Input CONCENTR.  nr:    1 is CONCENTR.  nr:    1 with ID  : Check               
 Input CONCENTR.  nr:    2 is CONCENTR.  nr:   21 with ID  : SuppletieSLP        

 DATA grouped in    1 blocks of    2 Substance 
 Constant values in this block.
 Substance      1          21
 boundary     Check       SuppletieS  
        19    1.0000E+00  1.0000E+00

 ====> input item completed <==== 



 Closing file: ..\work\Boundfra.dat                                                          

 Continuing on file: delwaq.inp                                                                    

 *********************************************************** B L O C K - 5 *****


 No waste loads 

 *********************************************************** B L O C K - 6 *****

  
 Input constant   nr:    1 is constant   nr:    1 with ID  : Iteration report    

 DATA grouped in    1 blocks of    1 values    
 Constant values in this block.
         1    0.0000E+00

 ====> input item completed <==== 



 Total number of constants        :    1

 Total number of parameters       :    0

 Total number of functions        :    0

 Total number of segment functions:    0

 *********************************************************** B L O C K - 7 *****


 Including file: \SBK212\SBI.LIT\WORK\WQ.DAT                                                                                                                                                                                                                                                                                                                                                                                                                                                                                                                                                                                                                                                                                                                                                                                                                                                                                                                                                                                                             


 Option selected for initials    :   0

 Information from unformatted intermediate file.
 Filename is: ..\WORK\DUMMY.RES                                                                                                                                                                                                                                              

 Closing file: \SBK212\SBI.LIT\WORK\WQ.DAT                                                   

 Continuing on file: delwaq.inp                                                                    

 *********************************************************** B L O C K - 8 *****



 Option selected for output specification :   1
 Information from the standard input file.

 Specification of monitor output

 Default output for this file

 Specification of grid dump output

 No output for this file

 Specification of history output

 All substances plus extra output variables

 (      1) number of output variables specified

 Number           Identification        Weight variable
       1           Volume                                    

 Specification of map output

 All substances plus extra output variables

 (      1) number of output variables specified

 Number           Identification 
       1           Volume              

 Binary history file switched on

 Binary map file switched on

 NEFIS history file switched off

 NEFIS map file switched off

 NO BALANCE output : balance option not active !
 
  Determining the place of the output variables
 
        Volume              ; Using DELWAQ VOLUME
        Volume              ; Using DELWAQ VOLUME

 *********************************************************** B L O C K - 9 *****


 Output operations
Number of periods defined:     0
 

 *********************************************************** B L O C K -10 *****



 Messages presented in this .lst file:

 Number of ERRORS during input :  0
 


 Messages presented including .lsp file:

 Number of ERRORS during input :  0
 total real    array space:     100953
 total integer array space:      14730
 total CHARACTER*20  space:        975
 Execution stop : 2012/12/13 15:26:14 
