  Using options from ini file : delwaq.ini
 Delft3D-WAQ version  4.5204 16-03-2009
 Only to be used by SOBEK licensee                          
 (c) Deltares
 Execution start: 2010/04/13 12:03:40 
 total real    array space:       3166
 total integer array space:       4144
 total CHARACTER*20  space:        348
1                    Water quality calculation Sobek-WQ      
                                                             

                                                             
                     T0: 1984.07.10 00:00:00  (scu=       1s)

                     Initialisation from system file completed.

 No process decomposition active
 partit: noseg,nolay=          14           1 , nseghr=          14
 partit: npart=  1, assigning all segments to part "npart", none to other parts
 
 CONSTANT ON UNIT:        22, READING: delwaq-dispersi.wrk                                                                                                                                                                                                                                            
 SIMULATION TIME :  0D  0H  0M  0S ! 
 TIME IN FILE    :  0D  0H  0M  0S ! 
 CONSTANT ON UNIT:        26, READING: ..\WORK\Length.dat                                                                                                                                                                                                                                             
 SIMULATION TIME :  0D  0H  0M  0S ! 
 TIME IN FILE    :  0D  0H  0M  0S ! 
  Closure error correction disabled
 
 Extra functionality DLWQTR
 End extra functionality DLWQTR
1
                                             Water quality calculation Sobek-WQ      
                                                                                     
                                                                                     
                                             T0: 1984.07.10 00:00:00  (scu=       1s)
   0.00% Completed


 DUMP OF INTERMEDIATE RESULTS IN SELECTED SEGMENTS
  TIME =   0D  0H  0M  0S .
 
 TOTAL MASS IN SYSTEM 8.5479E+02 0.0000E+00 0.0000E+00 2.1370E+04 1.7780E+04
 CHANGES BY PROCESSES 0.0000E+00 0.0000E+00 0.0000E+00 0.0000E+00 0.0000E+00
 CHANGES BY LOADS     0.0000E+00 0.0000E+00 0.0000E+00 0.0000E+00 0.0000E+00
 BOUNDARY INFLOWS     0.0000E+00 0.0000E+00 0.0000E+00 0.0000E+00 0.0000E+00
 BOUNDARY OUTFLOWS    0.0000E+00 0.0000E+00 0.0000E+00 0.0000E+00 0.0000E+00
                      NH4        CBOD5      CBOD5_2    OXY        CBOD5_3    
                                                                             
 CONCENTRATION                           
 p1                   2.0000E-01 0.0000E+00 0.0000E+00 5.0000E+00 4.1600E+00
 p2                   2.0000E-01 0.0000E+00 0.0000E+00 5.0000E+00 4.1600E+00
 l4                   2.0000E-01 0.0000E+00 0.0000E+00 5.0000E+00 4.1600E+00
 overstort            2.0000E-01 0.0000E+00 0.0000E+00 5.0000E+00 4.1600E+00
 SWT_Bodem_overstort_ 2.0000E-01 0.0000E+00 0.0000E+00 5.0000E+00 4.1600E+00
 SWT_Bodem_dik_slib   2.0000E-01 0.0000E+00 0.0000E+00 5.0000E+00 4.1600E+00
 SWT_Bodem_dunne_slib 2.0000E-01 0.0000E+00 0.0000E+00 5.0000E+00 4.1600E+00
 SWT_Bodem_normaal    2.0000E-01 0.0000E+00 0.0000E+00 5.0000E+00 4.1600E+00
 MASS                                    
 p1                   5.4502E+01 0.0000E+00 0.0000E+00 1.3625E+03 1.1336E+03
 p2                   7.6338E+01 0.0000E+00 0.0000E+00 1.9085E+03 1.5878E+03
 l4                   8.0906E+01 0.0000E+00 0.0000E+00 2.0226E+03 1.6828E+03
 overstort            1.4574E+01 0.0000E+00 0.0000E+00 3.6435E+02 3.0314E+02
 SWT_Bodem_overstort_ 1.4574E+01 0.0000E+00 0.0000E+00 3.6435E+02 3.0314E+02
 SWT_Bodem_dik_slib   8.1077E+01 0.0000E+00 0.0000E+00 2.0269E+03 1.6864E+03
 SWT_Bodem_dunne_slib 1.1256E+02 0.0000E+00 0.0000E+00 2.8139E+03 2.3412E+03
 SWT_Bodem_normaal    6.4658E+02 0.0000E+00 0.0000E+00 1.6164E+04 1.3449E+04
 PROCESSES                               
 p1                   0.0000E+00 0.0000E+00 0.0000E+00 0.0000E+00 0.0000E+00
 p2                   0.0000E+00 0.0000E+00 0.0000E+00 0.0000E+00 0.0000E+00
 l4                   0.0000E+00 0.0000E+00 0.0000E+00 0.0000E+00 0.0000E+00
 overstort            0.0000E+00 0.0000E+00 0.0000E+00 0.0000E+00 0.0000E+00
 SWT_Bodem_overstort_ 0.0000E+00 0.0000E+00 0.0000E+00 0.0000E+00 0.0000E+00
 SWT_Bodem_dik_slib   0.0000E+00 0.0000E+00 0.0000E+00 0.0000E+00 0.0000E+00
 SWT_Bodem_dunne_slib 0.0000E+00 0.0000E+00 0.0000E+00 0.0000E+00 0.0000E+00
 SWT_Bodem_normaal    0.0000E+00 0.0000E+00 0.0000E+00 0.0000E+00 0.0000E+00
 LOADS ( IN )                            
 p1                   0.0000E+00 0.0000E+00 0.0000E+00 0.0000E+00 0.0000E+00
 p2                   0.0000E+00 0.0000E+00 0.0000E+00 0.0000E+00 0.0000E+00
 l4                   0.0000E+00 0.0000E+00 0.0000E+00 0.0000E+00 0.0000E+00
 overstort            0.0000E+00 0.0000E+00 0.0000E+00 0.0000E+00 0.0000E+00
 SWT_Bodem_overstort_ 0.0000E+00 0.0000E+00 0.0000E+00 0.0000E+00 0.0000E+00
 SWT_Bodem_dik_slib   0.0000E+00 0.0000E+00 0.0000E+00 0.0000E+00 0.0000E+00
 SWT_Bodem_dunne_slib 0.0000E+00 0.0000E+00 0.0000E+00 0.0000E+00 0.0000E+00
 SWT_Bodem_normaal    0.0000E+00 0.0000E+00 0.0000E+00 0.0000E+00 0.0000E+00
 LOADS ( OUT )                           
 p1                   0.0000E+00 0.0000E+00 0.0000E+00 0.0000E+00 0.0000E+00
 p2                   0.0000E+00 0.0000E+00 0.0000E+00 0.0000E+00 0.0000E+00
 l4                   0.0000E+00 0.0000E+00 0.0000E+00 0.0000E+00 0.0000E+00
 overstort            0.0000E+00 0.0000E+00 0.0000E+00 0.0000E+00 0.0000E+00
 SWT_Bodem_overstort_ 0.0000E+00 0.0000E+00 0.0000E+00 0.0000E+00 0.0000E+00
 SWT_Bodem_dik_slib   0.0000E+00 0.0000E+00 0.0000E+00 0.0000E+00 0.0000E+00
 SWT_Bodem_dunne_slib 0.0000E+00 0.0000E+00 0.0000E+00 0.0000E+00 0.0000E+00
 SWT_Bodem_normaal    0.0000E+00 0.0000E+00 0.0000E+00 0.0000E+00 0.0000E+00
 TRANSPORT ( IN )                        
 p1                   0.0000E+00 0.0000E+00 0.0000E+00 0.0000E+00 0.0000E+00
 p2                   0.0000E+00 0.0000E+00 0.0000E+00 0.0000E+00 0.0000E+00
 l4                   0.0000E+00 0.0000E+00 0.0000E+00 0.0000E+00 0.0000E+00
 overstort            0.0000E+00 0.0000E+00 0.0000E+00 0.0000E+00 0.0000E+00
 SWT_Bodem_overstort_ 0.0000E+00 0.0000E+00 0.0000E+00 0.0000E+00 0.0000E+00
 SWT_Bodem_dik_slib   0.0000E+00 0.0000E+00 0.0000E+00 0.0000E+00 0.0000E+00
 SWT_Bodem_dunne_slib 0.0000E+00 0.0000E+00 0.0000E+00 0.0000E+00 0.0000E+00
 SWT_Bodem_normaal    0.0000E+00 0.0000E+00 0.0000E+00 0.0000E+00 0.0000E+00
 TRANSPORT ( OUT )                       
 p1                   0.0000E+00 0.0000E+00 0.0000E+00 0.0000E+00 0.0000E+00
 p2                   0.0000E+00 0.0000E+00 0.0000E+00 0.0000E+00 0.0000E+00
 l4                   0.0000E+00 0.0000E+00 0.0000E+00 0.0000E+00 0.0000E+00
 overstort            0.0000E+00 0.0000E+00 0.0000E+00 0.0000E+00 0.0000E+00
 SWT_Bodem_overstort_ 0.0000E+00 0.0000E+00 0.0000E+00 0.0000E+00 0.0000E+00
 SWT_Bodem_dik_slib   0.0000E+00 0.0000E+00 0.0000E+00 0.0000E+00 0.0000E+00
 SWT_Bodem_dunne_slib 0.0000E+00 0.0000E+00 0.0000E+00 0.0000E+00 0.0000E+00
 SWT_Bodem_normaal    0.0000E+00 0.0000E+00 0.0000E+00 0.0000E+00 0.0000E+00
 
   0.83% Completed


 DUMP OF INTERMEDIATE RESULTS IN SELECTED SEGMENTS
  TIME =   0D  3H  0M  0S .
 
 TOTAL MASS IN SYSTEM 8.3153E+02 0.0000E+00 0.0000E+00 2.1256E+04 1.7778E+04
 CHANGES BY PROCESSES-3.7624E+01 0.0000E+00 0.0000E+00 1.4058E+02 2.1012E+02
 CHANGES BY LOADS     0.0000E+00 0.0000E+00 0.0000E+00 0.0000E+00 0.0000E+00
 BOUNDARY INFLOWS     2.4413E+01 0.0000E+00 0.0000E+00 0.0000E+00 0.0000E+00
 BOUNDARY OUTFLOWS    1.0043E+01 0.0000E+00 0.0000E+00 2.5389E+02 2.1185E+02
                      NH4        CBOD5      CBOD5_2    OXY        CBOD5_3    
                                                                             
 CONCENTRATION                           
 p1                   1.9469E-01 0.0000E+00 0.0000E+00 4.9771E+00 4.1612E+00
 p2                   1.9463E-01 0.0000E+00 0.0000E+00 4.9754E+00 4.1620E+00
 l4                   1.9466E-01 0.0000E+00 0.0000E+00 4.9746E+00 4.1616E+00
 overstort            1.9453E-01 0.0000E+00 0.0000E+00 4.9823E+00 4.1633E+00
 SWT_Bodem_overstort_ 1.9453E-01 0.0000E+00 0.0000E+00 4.9823E+00 4.1633E+00
 SWT_Bodem_dik_slib   1.9471E-01 0.0000E+00 0.0000E+00 4.9774E+00 4.1609E+00
 SWT_Bodem_dunne_slib 1.9468E-01 0.0000E+00 0.0000E+00 4.9769E+00 4.1613E+00
 SWT_Bodem_normaal    1.9465E-01 0.0000E+00 0.0000E+00 4.9754E+00 4.1617E+00
 MASS                                    
 p1                   5.3022E+01 0.0000E+00 0.0000E+00 1.3555E+03 1.1333E+03
 p2                   7.4256E+01 0.0000E+00 0.0000E+00 1.8983E+03 1.5879E+03
 l4                   7.8713E+01 0.0000E+00 0.0000E+00 2.0115E+03 1.6828E+03
 overstort            1.4162E+01 0.0000E+00 0.0000E+00 3.6270E+02 3.0308E+02
 SWT_Bodem_overstort_ 1.4162E+01 0.0000E+00 0.0000E+00 3.6270E+02 3.0308E+02
 SWT_Bodem_dik_slib   7.8877E+01 0.0000E+00 0.0000E+00 2.0163E+03 1.6856E+03
 SWT_Bodem_dunne_slib 1.0950E+02 0.0000E+00 0.0000E+00 2.7993E+03 2.3406E+03
 SWT_Bodem_normaal    6.2900E+02 0.0000E+00 0.0000E+00 1.6078E+04 1.3449E+04
 PROCESSES                               
 p1                  -2.3992E+00 0.0000E+00 0.0000E+00 1.1355E+01 1.3397E+01
 p2                  -3.3596E+00 0.0000E+00 0.0000E+00 1.0397E+01 1.8764E+01
 l4                  -3.5611E+00 0.0000E+00 0.0000E+00 1.0660E+01 1.9889E+01
 overstort           -6.4114E-01 0.0000E+00 0.0000E+00 5.3956E+00 3.5797E+00
 SWT_Bodem_overstort_-6.4114E-01 0.0000E+00 0.0000E+00 5.3956E+00 3.5797E+00
 SWT_Bodem_dik_slib  -3.5693E+00 0.0000E+00 0.0000E+00 2.0787E+01 1.9930E+01
 SWT_Bodem_dunne_slib-4.9546E+00 0.0000E+00 0.0000E+00 2.2572E+01 2.7667E+01
 SWT_Bodem_normaal   -2.8458E+01 0.0000E+00 0.0000E+00 9.1826E+01 1.5894E+02
 LOADS ( IN )                            
 p1                   0.0000E+00 0.0000E+00 0.0000E+00 0.0000E+00 0.0000E+00
 p2                   0.0000E+00 0.0000E+00 0.0000E+00 0.0000E+00 0.0000E+00
 l4                   0.0000E+00 0.0000E+00 0.0000E+00 0.0000E+00 0.0000E+00
 overstort            0.0000E+00 0.0000E+00 0.0000E+00 0.0000E+00 0.0000E+00
 SWT_Bodem_overstort_ 0.0000E+00 0.0000E+00 0.0000E+00 0.0000E+00 0.0000E+00
 SWT_Bodem_dik_slib   0.0000E+00 0.0000E+00 0.0000E+00 0.0000E+00 0.0000E+00
 SWT_Bodem_dunne_slib 0.0000E+00 0.0000E+00 0.0000E+00 0.0000E+00 0.0000E+00
 SWT_Bodem_normaal    0.0000E+00 0.0000E+00 0.0000E+00 0.0000E+00 0.0000E+00
 LOADS ( OUT )                           
 p1                   0.0000E+00 0.0000E+00 0.0000E+00 0.0000E+00 0.0000E+00
 p2                   0.0000E+00 0.0000E+00 0.0000E+00 0.0000E+00 0.0000E+00
 l4                   0.0000E+00 0.0000E+00 0.0000E+00 0.0000E+00 0.0000E+00
 overstort            0.0000E+00 0.0000E+00 0.0000E+00 0.0000E+00 0.0000E+00
 SWT_Bodem_overstort_ 0.0000E+00 0.0000E+00 0.0000E+00 0.0000E+00 0.0000E+00
 SWT_Bodem_dik_slib   0.0000E+00 0.0000E+00 0.0000E+00 0.0000E+00 0.0000E+00
 SWT_Bodem_dunne_slib 0.0000E+00 0.0000E+00 0.0000E+00 0.0000E+00 0.0000E+00
 SWT_Bodem_normaal    0.0000E+00 0.0000E+00 0.0000E+00 0.0000E+00 0.0000E+00
 TRANSPORT ( IN )                        
 p1                   3.2848E+00 0.0000E+00 0.0000E+00 3.8426E+01 2.4415E+01
 p2                   6.1295E+00 0.0000E+00 0.0000E+00 1.6959E+02 1.3530E+02
 l4                   1.1411E+01 0.0000E+00 0.0000E+00 2.3212E+02 1.9188E+02
 overstort            2.2882E-01 0.0000E+00 0.0000E+00 0.0000E+00 0.0000E+00
 SWT_Bodem_overstort_ 2.2882E-01 0.0000E+00 0.0000E+00 0.0000E+00 0.0000E+00
 SWT_Bodem_dik_slib   4.8827E+00 0.0000E+00 0.0000E+00 7.0468E+00 3.6405E+00
 SWT_Bodem_dunne_slib 3.2848E+00 0.0000E+00 0.0000E+00 3.8426E+01 2.4415E+01
 SWT_Bodem_normaal    2.0919E+01 0.0000E+00 0.0000E+00 7.5607E+01 5.2683E+01
 TRANSPORT ( OUT )                       
 p1                   2.3653E+00 0.0000E+00 0.0000E+00 5.6832E+01 3.8155E+01
 p2                   4.8526E+00 0.0000E+00 0.0000E+00 1.9017E+02 1.5397E+02
 l4                   1.0043E+01 0.0000E+00 0.0000E+00 2.5389E+02 2.1185E+02
 overstort            0.0000E+00 0.0000E+00 0.0000E+00 7.0468E+00 3.6405E+00
 SWT_Bodem_overstort_ 0.0000E+00 0.0000E+00 0.0000E+00 7.0468E+00 3.6405E+00
 SWT_Bodem_dik_slib   3.5136E+00 0.0000E+00 0.0000E+00 3.8426E+01 2.4415E+01
 SWT_Bodem_dunne_slib 1.3891E+00 0.0000E+00 0.0000E+00 7.5607E+01 5.2683E+01
 SWT_Bodem_normaal    1.0043E+01 0.0000E+00 0.0000E+00 2.5389E+02 2.1185E+02
 
1
                                             Water quality calculation Sobek-WQ      
                                                                                     
                                                                                     
                                             T0: 1984.07.10 00:00:00  (scu=       1s)
   1.67% Completed


 DUMP OF INTERMEDIATE RESULTS IN SELECTED SEGMENTS
  TIME =   0D  6H  0M  0S .
 
 TOTAL MASS IN SYSTEM 8.0984E+02 0.0000E+00 0.0000E+00 2.1159E+04 1.7781E+04
 CHANGES BY PROCESSES-3.6573E+01 0.0000E+00 0.0000E+00 1.4891E+02 2.1012E+02
 CHANGES BY LOADS     0.0000E+00 0.0000E+00 0.0000E+00 0.0000E+00 0.0000E+00
 BOUNDARY INFLOWS     2.4413E+01 0.0000E+00 0.0000E+00 0.0000E+00 0.0000E+00
 BOUNDARY OUTFLOWS    9.5340E+00 0.0000E+00 0.0000E+00 2.4639E+02 2.0663E+02
                      NH4        CBOD5      CBOD5_2    OXY        CBOD5_3    
                                                                             
 CONCENTRATION                           
 p1                   1.8964E-01 0.0000E+00 0.0000E+00 4.9553E+00 4.1628E+00
 p2                   1.8958E-01 0.0000E+00 0.0000E+00 4.9535E+00 4.1636E+00
 l4                   1.8962E-01 0.0000E+00 0.0000E+00 4.9527E+00 4.1632E+00
 overstort            1.8948E-01 0.0000E+00 0.0000E+00 4.9608E+00 4.1650E+00
 SWT_Bodem_overstort_ 1.8948E-01 0.0000E+00 0.0000E+00 4.9608E+00 4.1650E+00
 SWT_Bodem_dik_slib   1.8967E-01 0.0000E+00 0.0000E+00 4.9556E+00 4.1625E+00
 SWT_Bodem_dunne_slib 1.8964E-01 0.0000E+00 0.0000E+00 4.9551E+00 4.1629E+00
 SWT_Bodem_normaal    1.8960E-01 0.0000E+00 0.0000E+00 4.9535E+00 4.1634E+00
 MASS                                    
 p1                   5.1637E+01 0.0000E+00 0.0000E+00 1.3492E+03 1.1335E+03
 p2                   7.2320E+01 0.0000E+00 0.0000E+00 1.8896E+03 1.5883E+03
 l4                   7.6661E+01 0.0000E+00 0.0000E+00 2.0024E+03 1.6831E+03
 overstort            1.3788E+01 0.0000E+00 0.0000E+00 3.6100E+02 3.0309E+02
 SWT_Bodem_overstort_ 1.3788E+01 0.0000E+00 0.0000E+00 3.6100E+02 3.0309E+02
 SWT_Bodem_dik_slib   7.6814E+01 0.0000E+00 0.0000E+00 2.0070E+03 1.6857E+03
 SWT_Bodem_dunne_slib 1.0664E+02 0.0000E+00 0.0000E+00 2.7864E+03 2.3409E+03
 SWT_Bodem_normaal    6.1260E+02 0.0000E+00 0.0000E+00 1.6005E+04 1.3452E+04
 PROCESSES                               
 p1                  -2.3321E+00 0.0000E+00 0.0000E+00 1.1930E+01 1.3396E+01
 p2                  -3.2659E+00 0.0000E+00 0.0000E+00 1.1102E+01 1.8765E+01
 l4                  -3.4617E+00 0.0000E+00 0.0000E+00 1.1400E+01 1.9891E+01
 overstort           -6.2300E-01 0.0000E+00 0.0000E+00 5.5904E+00 3.5783E+00
 SWT_Bodem_overstort_-6.2300E-01 0.0000E+00 0.0000E+00 5.5904E+00 3.5783E+00
 SWT_Bodem_dik_slib  -3.4694E+00 0.0000E+00 0.0000E+00 2.1716E+01 1.9927E+01
 SWT_Bodem_dunne_slib-4.8161E+00 0.0000E+00 0.0000E+00 2.3746E+01 2.7666E+01
 SWT_Bodem_normaal   -2.7664E+01 0.0000E+00 0.0000E+00 9.7860E+01 1.5895E+02
 LOADS ( IN )                            
 p1                   0.0000E+00 0.0000E+00 0.0000E+00 0.0000E+00 0.0000E+00
 p2                   0.0000E+00 0.0000E+00 0.0000E+00 0.0000E+00 0.0000E+00
 l4                   0.0000E+00 0.0000E+00 0.0000E+00 0.0000E+00 0.0000E+00
 overstort            0.0000E+00 0.0000E+00 0.0000E+00 0.0000E+00 0.0000E+00
 SWT_Bodem_overstort_ 0.0000E+00 0.0000E+00 0.0000E+00 0.0000E+00 0.0000E+00
 SWT_Bodem_dik_slib   0.0000E+00 0.0000E+00 0.0000E+00 0.0000E+00 0.0000E+00
 SWT_Bodem_dunne_slib 0.0000E+00 0.0000E+00 0.0000E+00 0.0000E+00 0.0000E+00
 SWT_Bodem_normaal    0.0000E+00 0.0000E+00 0.0000E+00 0.0000E+00 0.0000E+00
 LOADS ( OUT )                           
 p1                   0.0000E+00 0.0000E+00 0.0000E+00 0.0000E+00 0.0000E+00
 p2                   0.0000E+00 0.0000E+00 0.0000E+00 0.0000E+00 0.0000E+00
 l4                   0.0000E+00 0.0000E+00 0.0000E+00 0.0000E+00 0.0000E+00
 overstort            0.0000E+00 0.0000E+00 0.0000E+00 0.0000E+00 0.0000E+00
 SWT_Bodem_overstort_ 0.0000E+00 0.0000E+00 0.0000E+00 0.0000E+00 0.0000E+00
 SWT_Bodem_dik_slib   0.0000E+00 0.0000E+00 0.0000E+00 0.0000E+00 0.0000E+00
 SWT_Bodem_dunne_slib 0.0000E+00 0.0000E+00 0.0000E+00 0.0000E+00 0.0000E+00
 SWT_Bodem_normaal    0.0000E+00 0.0000E+00 0.0000E+00 0.0000E+00 0.0000E+00
 TRANSPORT ( IN )                        
 p1                   3.2267E+00 0.0000E+00 0.0000E+00 3.8394E+01 2.3314E+01
 p2                   5.8056E+00 0.0000E+00 0.0000E+00 1.6609E+02 1.3153E+02
 l4                   1.0944E+01 0.0000E+00 0.0000E+00 2.2580E+02 1.8712E+02
 overstort            2.4971E-01 0.0000E+00 0.0000E+00 0.0000E+00 0.0000E+00
 SWT_Bodem_overstort_ 2.4971E-01 0.0000E+00 0.0000E+00 0.0000E+00 0.0000E+00
 SWT_Bodem_dik_slib   4.8827E+00 0.0000E+00 0.0000E+00 7.2905E+00 3.5676E+00
 SWT_Bodem_dunne_slib 3.2267E+00 0.0000E+00 0.0000E+00 3.8394E+01 2.3314E+01
 SWT_Bodem_normaal    2.0800E+01 0.0000E+00 0.0000E+00 7.5042E+01 5.0605E+01
 TRANSPORT ( OUT )                       
 p1                   2.2794E+00 0.0000E+00 0.0000E+00 5.6577E+01 3.6538E+01
 p2                   4.4756E+00 0.0000E+00 0.0000E+00 1.8586E+02 1.4994E+02
 l4                   9.5340E+00 0.0000E+00 0.0000E+00 2.4639E+02 2.0663E+02
 overstort            0.0000E+00 0.0000E+00 0.0000E+00 7.2905E+00 3.5676E+00
 SWT_Bodem_overstort_ 0.0000E+00 0.0000E+00 0.0000E+00 7.2905E+00 3.5676E+00
 SWT_Bodem_dik_slib   3.4765E+00 0.0000E+00 0.0000E+00 3.8394E+01 2.3314E+01
 SWT_Bodem_dunne_slib 1.2699E+00 0.0000E+00 0.0000E+00 7.5042E+01 5.0605E+01
 SWT_Bodem_normaal    9.5340E+00 0.0000E+00 0.0000E+00 2.4639E+02 2.0663E+02
 
   2.50% Completed


 DUMP OF INTERMEDIATE RESULTS IN SELECTED SEGMENTS
  TIME =   0D  9H  0M  0S .
 
 TOTAL MASS IN SYSTEM 7.8946E+02 0.0000E+00 0.0000E+00 2.1073E+04 1.7787E+04
 CHANGES BY PROCESSES-3.5592E+01 0.0000E+00 0.0000E+00 1.5661E+02 2.1015E+02
 CHANGES BY LOADS     0.0000E+00 0.0000E+00 0.0000E+00 0.0000E+00 0.0000E+00
 BOUNDARY INFLOWS     2.4413E+01 0.0000E+00 0.0000E+00 0.0000E+00 0.0000E+00
 BOUNDARY OUTFLOWS    9.1976E+00 0.0000E+00 0.0000E+00 2.4289E+02 2.0464E+02
                      NH4        CBOD5      CBOD5_2    OXY        CBOD5_3    
                                                                             
 CONCENTRATION                           
 p1                   1.8489E-01 0.0000E+00 0.0000E+00 4.9355E+00 4.1644E+00
 p2                   1.8483E-01 0.0000E+00 0.0000E+00 4.9337E+00 4.1652E+00
 l4                   1.8486E-01 0.0000E+00 0.0000E+00 4.9328E+00 4.1648E+00
 overstort            1.8472E-01 0.0000E+00 0.0000E+00 4.9412E+00 4.1667E+00
 SWT_Bodem_overstort_ 1.8472E-01 0.0000E+00 0.0000E+00 4.9412E+00 4.1667E+00
 SWT_Bodem_dik_slib   1.8491E-01 0.0000E+00 0.0000E+00 4.9358E+00 4.1641E+00
 SWT_Bodem_dunne_slib 1.8488E-01 0.0000E+00 0.0000E+00 4.9353E+00 4.1645E+00
 SWT_Bodem_normaal    1.8485E-01 0.0000E+00 0.0000E+00 4.9337E+00 4.1650E+00
 MASS                                    
 p1                   5.0338E+01 0.0000E+00 0.0000E+00 1.3437E+03 1.1338E+03
 p2                   7.0501E+01 0.0000E+00 0.0000E+00 1.8819E+03 1.5888E+03
 l4                   7.4733E+01 0.0000E+00 0.0000E+00 1.9942E+03 1.6837E+03
 overstort            1.3440E+01 0.0000E+00 0.0000E+00 3.5952E+02 3.0317E+02
 SWT_Bodem_overstort_ 1.3440E+01 0.0000E+00 0.0000E+00 3.5952E+02 3.0317E+02
 SWT_Bodem_dik_slib   7.4880E+01 0.0000E+00 0.0000E+00 1.9987E+03 1.6862E+03
 SWT_Bodem_dunne_slib 1.0395E+02 0.0000E+00 0.0000E+00 2.7750E+03 2.3416E+03
 SWT_Bodem_normaal    5.9719E+02 0.0000E+00 0.0000E+00 1.5939E+04 1.3456E+04
 PROCESSES                               
 p1                  -2.2696E+00 0.0000E+00 0.0000E+00 1.2463E+01 1.3398E+01
 p2                  -3.1784E+00 0.0000E+00 0.0000E+00 1.1752E+01 1.8769E+01
 l4                  -3.3690E+00 0.0000E+00 0.0000E+00 1.2083E+01 1.9894E+01
 overstort           -6.0620E-01 0.0000E+00 0.0000E+00 5.7735E+00 3.5783E+00
 SWT_Bodem_overstort_-6.0620E-01 0.0000E+00 0.0000E+00 5.7735E+00 3.5783E+00
 SWT_Bodem_dik_slib  -3.3762E+00 0.0000E+00 0.0000E+00 2.2577E+01 1.9929E+01
 SWT_Bodem_dunne_slib-4.6870E+00 0.0000E+00 0.0000E+00 2.4831E+01 2.7670E+01
 SWT_Bodem_normaal   -2.6923E+01 0.0000E+00 0.0000E+00 1.0343E+02 1.5898E+02
 LOADS ( IN )                            
 p1                   0.0000E+00 0.0000E+00 0.0000E+00 0.0000E+00 0.0000E+00
 p2                   0.0000E+00 0.0000E+00 0.0000E+00 0.0000E+00 0.0000E+00
 l4                   0.0000E+00 0.0000E+00 0.0000E+00 0.0000E+00 0.0000E+00
 overstort            0.0000E+00 0.0000E+00 0.0000E+00 0.0000E+00 0.0000E+00
 SWT_Bodem_overstort_ 0.0000E+00 0.0000E+00 0.0000E+00 0.0000E+00 0.0000E+00
 SWT_Bodem_dik_slib   0.0000E+00 0.0000E+00 0.0000E+00 0.0000E+00 0.0000E+00
 SWT_Bodem_dunne_slib 0.0000E+00 0.0000E+00 0.0000E+00 0.0000E+00 0.0000E+00
 SWT_Bodem_normaal    0.0000E+00 0.0000E+00 0.0000E+00 0.0000E+00 0.0000E+00
 LOADS ( OUT )                           
 p1                   0.0000E+00 0.0000E+00 0.0000E+00 0.0000E+00 0.0000E+00
 p2                   0.0000E+00 0.0000E+00 0.0000E+00 0.0000E+00 0.0000E+00
 l4                   0.0000E+00 0.0000E+00 0.0000E+00 0.0000E+00 0.0000E+00
 overstort            0.0000E+00 0.0000E+00 0.0000E+00 0.0000E+00 0.0000E+00
 SWT_Bodem_overstort_ 0.0000E+00 0.0000E+00 0.0000E+00 0.0000E+00 0.0000E+00
 SWT_Bodem_dik_slib   0.0000E+00 0.0000E+00 0.0000E+00 0.0000E+00 0.0000E+00
 SWT_Bodem_dunne_slib 0.0000E+00 0.0000E+00 0.0000E+00 0.0000E+00 0.0000E+00
 SWT_Bodem_normaal    0.0000E+00 0.0000E+00 0.0000E+00 0.0000E+00 0.0000E+00
 TRANSPORT ( IN )                        
 p1                   3.1831E+00 0.0000E+00 0.0000E+00 3.8056E+01 2.2968E+01
 p2                   5.5869E+00 0.0000E+00 0.0000E+00 1.6393E+02 1.3016E+02
 l4                   1.0639E+01 0.0000E+00 0.0000E+00 2.2265E+02 1.8529E+02
 overstort            2.5751E-01 0.0000E+00 0.0000E+00 0.0000E+00 0.0000E+00
 SWT_Bodem_overstort_ 2.5751E-01 0.0000E+00 0.0000E+00 0.0000E+00 0.0000E+00
 SWT_Bodem_dik_slib   4.8827E+00 0.0000E+00 0.0000E+00 7.2550E+00 3.5026E+00
 SWT_Bodem_dunne_slib 3.1831E+00 0.0000E+00 0.0000E+00 3.8056E+01 2.2968E+01
 SWT_Bodem_normaal    2.0710E+01 0.0000E+00 0.0000E+00 7.4273E+01 4.9950E+01
 TRANSPORT ( OUT )                       
 p1                   2.2132E+00 0.0000E+00 0.0000E+00 5.6033E+01 3.6035E+01
 p2                   4.2281E+00 0.0000E+00 0.0000E+00 1.8338E+02 1.4842E+02
 l4                   9.1976E+00 0.0000E+00 0.0000E+00 2.4289E+02 2.0464E+02
 overstort            0.0000E+00 0.0000E+00 0.0000E+00 7.2550E+00 3.5026E+00
 SWT_Bodem_overstort_ 0.0000E+00 0.0000E+00 0.0000E+00 7.2550E+00 3.5026E+00
 SWT_Bodem_dik_slib   3.4406E+00 0.0000E+00 0.0000E+00 3.8056E+01 2.2968E+01
 SWT_Bodem_dunne_slib 1.1801E+00 0.0000E+00 0.0000E+00 7.4273E+01 4.9950E+01
 SWT_Bodem_normaal    9.1976E+00 0.0000E+00 0.0000E+00 2.4289E+02 2.0464E+02
 
1
                                             Water quality calculation Sobek-WQ      
                                                                                     
                                                                                     
                                             T0: 1984.07.10 00:00:00  (scu=       1s)
   3.33% Completed


 DUMP OF INTERMEDIATE RESULTS IN SELECTED SEGMENTS
  TIME =   0D 12H  0M  0S .
 
 TOTAL MASS IN SYSTEM 7.7027E+02 0.0000E+00 0.0000E+00 2.0995E+04 1.7793E+04
 CHANGES BY PROCESSES-3.4673E+01 0.0000E+00 0.0000E+00 1.6372E+02 2.1019E+02
 CHANGES BY LOADS     0.0000E+00 0.0000E+00 0.0000E+00 0.0000E+00 0.0000E+00
 BOUNDARY INFLOWS     2.4413E+01 0.0000E+00 0.0000E+00 0.0000E+00 0.0000E+00
 BOUNDARY OUTFLOWS    8.9351E+00 0.0000E+00 0.0000E+00 2.4101E+02 2.0391E+02
                      NH4        CBOD5      CBOD5_2    OXY        CBOD5_3    
                                                                             
 CONCENTRATION                           
 p1                   1.8040E-01 0.0000E+00 0.0000E+00 4.9175E+00 4.1660E+00
 p2                   1.8034E-01 0.0000E+00 0.0000E+00 4.9157E+00 4.1668E+00
 l4                   1.8037E-01 0.0000E+00 0.0000E+00 4.9149E+00 4.1664E+00
 overstort            1.8022E-01 0.0000E+00 0.0000E+00 4.9234E+00 4.1683E+00
 SWT_Bodem_overstort_ 1.8022E-01 0.0000E+00 0.0000E+00 4.9234E+00 4.1683E+00
 SWT_Bodem_dik_slib   1.8043E-01 0.0000E+00 0.0000E+00 4.9179E+00 4.1656E+00
 SWT_Bodem_dunne_slib 1.8039E-01 0.0000E+00 0.0000E+00 4.9173E+00 4.1661E+00
 SWT_Bodem_normaal    1.8036E-01 0.0000E+00 0.0000E+00 4.9157E+00 4.1665E+00
 MASS                                    
 p1                   4.9114E+01 0.0000E+00 0.0000E+00 1.3388E+03 1.1342E+03
 p2                   6.8786E+01 0.0000E+00 0.0000E+00 1.8750E+03 1.5894E+03
 l4                   7.2917E+01 0.0000E+00 0.0000E+00 1.9869E+03 1.6843E+03
 overstort            1.3112E+01 0.0000E+00 0.0000E+00 3.5820E+02 3.0327E+02
 SWT_Bodem_overstort_ 1.3112E+01 0.0000E+00 0.0000E+00 3.5820E+02 3.0327E+02
 SWT_Bodem_dik_slib   7.3059E+01 0.0000E+00 0.0000E+00 1.9914E+03 1.6868E+03
 SWT_Bodem_dunne_slib 1.0143E+02 0.0000E+00 0.0000E+00 2.7648E+03 2.3425E+03
 SWT_Bodem_normaal    5.8267E+02 0.0000E+00 0.0000E+00 1.5881E+04 1.3461E+04
 PROCESSES                               
 p1                  -2.2110E+00 0.0000E+00 0.0000E+00 1.2955E+01 1.3400E+01
 p2                  -3.0963E+00 0.0000E+00 0.0000E+00 1.2353E+01 1.8772E+01
 l4                  -3.2820E+00 0.0000E+00 0.0000E+00 1.2714E+01 1.9898E+01
 overstort           -5.9049E-01 0.0000E+00 0.0000E+00 5.9425E+00 3.5787E+00
 SWT_Bodem_overstort_-5.9049E-01 0.0000E+00 0.0000E+00 5.9425E+00 3.5787E+00
 SWT_Bodem_dik_slib  -3.2890E+00 0.0000E+00 0.0000E+00 2.3370E+01 1.9932E+01
 SWT_Bodem_dunne_slib-4.5659E+00 0.0000E+00 0.0000E+00 2.5832E+01 2.7675E+01
 SWT_Bodem_normaal   -2.6228E+01 0.0000E+00 0.0000E+00 1.0858E+02 1.5900E+02
 LOADS ( IN )                            
 p1                   0.0000E+00 0.0000E+00 0.0000E+00 0.0000E+00 0.0000E+00
 p2                   0.0000E+00 0.0000E+00 0.0000E+00 0.0000E+00 0.0000E+00
 l4                   0.0000E+00 0.0000E+00 0.0000E+00 0.0000E+00 0.0000E+00
 overstort            0.0000E+00 0.0000E+00 0.0000E+00 0.0000E+00 0.0000E+00
 SWT_Bodem_overstort_ 0.0000E+00 0.0000E+00 0.0000E+00 0.0000E+00 0.0000E+00
 SWT_Bodem_dik_slib   0.0000E+00 0.0000E+00 0.0000E+00 0.0000E+00 0.0000E+00
 SWT_Bodem_dunne_slib 0.0000E+00 0.0000E+00 0.0000E+00 0.0000E+00 0.0000E+00
 SWT_Bodem_normaal    0.0000E+00 0.0000E+00 0.0000E+00 0.0000E+00 0.0000E+00
 LOADS ( OUT )                           
 p1                   0.0000E+00 0.0000E+00 0.0000E+00 0.0000E+00 0.0000E+00
 p2                   0.0000E+00 0.0000E+00 0.0000E+00 0.0000E+00 0.0000E+00
 l4                   0.0000E+00 0.0000E+00 0.0000E+00 0.0000E+00 0.0000E+00
 overstort            0.0000E+00 0.0000E+00 0.0000E+00 0.0000E+00 0.0000E+00
 SWT_Bodem_overstort_ 0.0000E+00 0.0000E+00 0.0000E+00 0.0000E+00 0.0000E+00
 SWT_Bodem_dik_slib   0.0000E+00 0.0000E+00 0.0000E+00 0.0000E+00 0.0000E+00
 SWT_Bodem_dunne_slib 0.0000E+00 0.0000E+00 0.0000E+00 0.0000E+00 0.0000E+00
 SWT_Bodem_normaal    0.0000E+00 0.0000E+00 0.0000E+00 0.0000E+00 0.0000E+00
 TRANSPORT ( IN )                        
 p1                   3.1516E+00 0.0000E+00 0.0000E+00 3.7966E+01 2.2837E+01
 p2                   5.4185E+00 0.0000E+00 0.0000E+00 1.6284E+02 1.2966E+02
 l4                   1.0400E+01 0.0000E+00 0.0000E+00 2.2097E+02 1.8461E+02
 overstort            2.6279E-01 0.0000E+00 0.0000E+00 0.0000E+00 0.0000E+00
 SWT_Bodem_overstort_ 2.6279E-01 0.0000E+00 0.0000E+00 0.0000E+00 0.0000E+00
 SWT_Bodem_dik_slib   4.8827E+00 0.0000E+00 0.0000E+00 7.2607E+00 3.4787E+00
 SWT_Bodem_dunne_slib 3.1516E+00 0.0000E+00 0.0000E+00 3.7966E+01 2.2837E+01
 SWT_Bodem_normaal    2.0643E+01 0.0000E+00 0.0000E+00 7.3975E+01 4.9700E+01
 TRANSPORT ( OUT )                       
 p1                   2.1644E+00 0.0000E+00 0.0000E+00 5.5852E+01 3.5849E+01
 p2                   4.0365E+00 0.0000E+00 0.0000E+00 1.8210E+02 1.4786E+02
 l4                   8.9351E+00 0.0000E+00 0.0000E+00 2.4101E+02 2.0391E+02
 overstort            0.0000E+00 0.0000E+00 0.0000E+00 7.2607E+00 3.4787E+00
 SWT_Bodem_overstort_ 0.0000E+00 0.0000E+00 0.0000E+00 7.2607E+00 3.4787E+00
 SWT_Bodem_dik_slib   3.4143E+00 0.0000E+00 0.0000E+00 3.7966E+01 2.2837E+01
 SWT_Bodem_dunne_slib 1.1131E+00 0.0000E+00 0.0000E+00 7.3975E+01 4.9700E+01
 SWT_Bodem_normaal    8.9351E+00 0.0000E+00 0.0000E+00 2.4101E+02 2.0391E+02
 
   4.17% Completed


 DUMP OF INTERMEDIATE RESULTS IN SELECTED SEGMENTS
  TIME =   0D 15H  0M  0S .
 
 TOTAL MASS IN SYSTEM 7.5216E+02 0.0000E+00 0.0000E+00 2.0926E+04 1.7800E+04
 CHANGES BY PROCESSES-3.3810E+01 0.0000E+00 0.0000E+00 1.7029E+02 2.1022E+02
 CHANGES BY LOADS     0.0000E+00 0.0000E+00 0.0000E+00 0.0000E+00 0.0000E+00
 BOUNDARY INFLOWS     2.4413E+01 0.0000E+00 0.0000E+00 0.0000E+00 0.0000E+00
 BOUNDARY OUTFLOWS    8.7082E+00 0.0000E+00 0.0000E+00 2.3980E+02 2.0367E+02
                      NH4        CBOD5      CBOD5_2    OXY        CBOD5_3    
                                                                             
 CONCENTRATION                           
 p1                   1.7616E-01 0.0000E+00 0.0000E+00 4.9014E+00 4.1676E+00
 p2                   1.7610E-01 0.0000E+00 0.0000E+00 4.8995E+00 4.1684E+00
 l4                   1.7613E-01 0.0000E+00 0.0000E+00 4.8986E+00 4.1679E+00
 overstort            1.7598E-01 0.0000E+00 0.0000E+00 4.9072E+00 4.1699E+00
 SWT_Bodem_overstort_ 1.7598E-01 0.0000E+00 0.0000E+00 4.9072E+00 4.1699E+00
 SWT_Bodem_dik_slib   1.7619E-01 0.0000E+00 0.0000E+00 4.9017E+00 4.1672E+00
 SWT_Bodem_dunne_slib 1.7615E-01 0.0000E+00 0.0000E+00 4.9012E+00 4.1677E+00
 SWT_Bodem_normaal    1.7612E-01 0.0000E+00 0.0000E+00 4.8995E+00 4.1681E+00
 MASS                                    
 p1                   4.7960E+01 0.0000E+00 0.0000E+00 1.3344E+03 1.1346E+03
 p2                   6.7169E+01 0.0000E+00 0.0000E+00 1.8688E+03 1.5900E+03
 l4                   7.1203E+01 0.0000E+00 0.0000E+00 1.9803E+03 1.6849E+03
 overstort            1.2803E+01 0.0000E+00 0.0000E+00 3.5702E+02 3.0337E+02
 SWT_Bodem_overstort_ 1.2803E+01 0.0000E+00 0.0000E+00 3.5702E+02 3.0337E+02
 SWT_Bodem_dik_slib   7.1343E+01 0.0000E+00 0.0000E+00 1.9848E+03 1.6874E+03
 SWT_Bodem_dunne_slib 9.9043E+01 0.0000E+00 0.0000E+00 2.7557E+03 2.3433E+03
 SWT_Bodem_normaal    5.6898E+02 0.0000E+00 0.0000E+00 1.5828E+04 1.3466E+04
 PROCESSES                               
 p1                  -2.1559E+00 0.0000E+00 0.0000E+00 1.3408E+01 1.3402E+01
 p2                  -3.0192E+00 0.0000E+00 0.0000E+00 1.2908E+01 1.8775E+01
 l4                  -3.2003E+00 0.0000E+00 0.0000E+00 1.3297E+01 1.9901E+01
 overstort           -5.7576E-01 0.0000E+00 0.0000E+00 6.0979E+00 3.5792E+00
 SWT_Bodem_overstort_-5.7576E-01 0.0000E+00 0.0000E+00 6.0979E+00 3.5792E+00
 SWT_Bodem_dik_slib  -3.2071E+00 0.0000E+00 0.0000E+00 2.4101E+01 1.9935E+01
 SWT_Bodem_dunne_slib-4.4522E+00 0.0000E+00 0.0000E+00 2.6756E+01 2.7679E+01
 SWT_Bodem_normaal   -2.5575E+01 0.0000E+00 0.0000E+00 1.1334E+02 1.5903E+02
 LOADS ( IN )                            
 p1                   0.0000E+00 0.0000E+00 0.0000E+00 0.0000E+00 0.0000E+00
 p2                   0.0000E+00 0.0000E+00 0.0000E+00 0.0000E+00 0.0000E+00
 l4                   0.0000E+00 0.0000E+00 0.0000E+00 0.0000E+00 0.0000E+00
 overstort            0.0000E+00 0.0000E+00 0.0000E+00 0.0000E+00 0.0000E+00
 SWT_Bodem_overstort_ 0.0000E+00 0.0000E+00 0.0000E+00 0.0000E+00 0.0000E+00
 SWT_Bodem_dik_slib   0.0000E+00 0.0000E+00 0.0000E+00 0.0000E+00 0.0000E+00
 SWT_Bodem_dunne_slib 0.0000E+00 0.0000E+00 0.0000E+00 0.0000E+00 0.0000E+00
 SWT_Bodem_normaal    0.0000E+00 0.0000E+00 0.0000E+00 0.0000E+00 0.0000E+00
 LOADS ( OUT )                           
 p1                   0.0000E+00 0.0000E+00 0.0000E+00 0.0000E+00 0.0000E+00
 p2                   0.0000E+00 0.0000E+00 0.0000E+00 0.0000E+00 0.0000E+00
 l4                   0.0000E+00 0.0000E+00 0.0000E+00 0.0000E+00 0.0000E+00
 overstort            0.0000E+00 0.0000E+00 0.0000E+00 0.0000E+00 0.0000E+00
 SWT_Bodem_overstort_ 0.0000E+00 0.0000E+00 0.0000E+00 0.0000E+00 0.0000E+00
 SWT_Bodem_dik_slib   0.0000E+00 0.0000E+00 0.0000E+00 0.0000E+00 0.0000E+00
 SWT_Bodem_dunne_slib 0.0000E+00 0.0000E+00 0.0000E+00 0.0000E+00 0.0000E+00
 SWT_Bodem_normaal    0.0000E+00 0.0000E+00 0.0000E+00 0.0000E+00 0.0000E+00
 TRANSPORT ( IN )                        
 p1                   3.1252E+00 0.0000E+00 0.0000E+00 3.7962E+01 2.2791E+01
 p2                   5.2738E+00 0.0000E+00 0.0000E+00 1.6220E+02 1.2949E+02
 l4                   1.0195E+01 0.0000E+00 0.0000E+00 2.1992E+02 1.8440E+02
 overstort            2.6698E-01 0.0000E+00 0.0000E+00 0.0000E+00 0.0000E+00
 SWT_Bodem_overstort_ 2.6698E-01 0.0000E+00 0.0000E+00 0.0000E+00 0.0000E+00
 SWT_Bodem_dik_slib   4.8827E+00 0.0000E+00 0.0000E+00 7.2800E+00 3.4701E+00
 SWT_Bodem_dunne_slib 3.1252E+00 0.0000E+00 0.0000E+00 3.7962E+01 2.2791E+01
 SWT_Bodem_normaal    2.0587E+01 0.0000E+00 0.0000E+00 7.3866E+01 4.9613E+01
 TRANSPORT ( OUT )                       
 p1                   2.1234E+00 0.0000E+00 0.0000E+00 5.5800E+01 3.5780E+01
 p2                   3.8720E+00 0.0000E+00 0.0000E+00 1.8133E+02 1.4769E+02
 l4                   8.7082E+00 0.0000E+00 0.0000E+00 2.3980E+02 2.0367E+02
 overstort            0.0000E+00 0.0000E+00 0.0000E+00 7.2800E+00 3.4701E+00
 SWT_Bodem_overstort_ 0.0000E+00 0.0000E+00 0.0000E+00 7.2800E+00 3.4701E+00
 SWT_Bodem_dik_slib   3.3922E+00 0.0000E+00 0.0000E+00 3.7962E+01 2.2791E+01
 SWT_Bodem_dunne_slib 1.0567E+00 0.0000E+00 0.0000E+00 7.3866E+01 4.9613E+01
 SWT_Bodem_normaal    8.7082E+00 0.0000E+00 0.0000E+00 2.3980E+02 2.0367E+02
 
1
                                             Water quality calculation Sobek-WQ      
                                                                                     
                                                                                     
                                             T0: 1984.07.10 00:00:00  (scu=       1s)
   5.00% Completed


 DUMP OF INTERMEDIATE RESULTS IN SELECTED SEGMENTS
  TIME =   0D 18H  0M  0S .
 
 TOTAL MASS IN SYSTEM 7.3508E+02 0.0000E+00 0.0000E+00 2.0863E+04 1.7806E+04
 CHANGES BY PROCESSES-3.2998E+01 0.0000E+00 0.0000E+00 1.7636E+02 2.1025E+02
 CHANGES BY LOADS     0.0000E+00 0.0000E+00 0.0000E+00 0.0000E+00 0.0000E+00
 BOUNDARY INFLOWS     2.4413E+01 0.0000E+00 0.0000E+00 0.0000E+00 0.0000E+00
 BOUNDARY OUTFLOWS    8.5019E+00 0.0000E+00 0.0000E+00 2.3890E+02 2.0362E+02
                      NH4        CBOD5      CBOD5_2    OXY        CBOD5_3    
                                                                             
 CONCENTRATION                           
 p1                   1.7216E-01 0.0000E+00 0.0000E+00 4.8868E+00 4.1691E+00
 p2                   1.7210E-01 0.0000E+00 0.0000E+00 4.8848E+00 4.1700E+00
 l4                   1.7213E-01 0.0000E+00 0.0000E+00 4.8840E+00 4.1695E+00
 overstort            1.7198E-01 0.0000E+00 0.0000E+00 4.8927E+00 4.1715E+00
 SWT_Bodem_overstort_ 1.7198E-01 0.0000E+00 0.0000E+00 4.8927E+00 4.1715E+00
 SWT_Bodem_dik_slib   1.7219E-01 0.0000E+00 0.0000E+00 4.8872E+00 4.1688E+00
 SWT_Bodem_dunne_slib 1.7215E-01 0.0000E+00 0.0000E+00 4.8865E+00 4.1693E+00
 SWT_Bodem_normaal    1.7212E-01 0.0000E+00 0.0000E+00 4.8848E+00 4.1697E+00
 MASS                                    
 p1                   4.6870E+01 0.0000E+00 0.0000E+00 1.3304E+03 1.1350E+03
 p2                   6.5643E+01 0.0000E+00 0.0000E+00 1.8632E+03 1.5906E+03
 l4                   6.9586E+01 0.0000E+00 0.0000E+00 1.9744E+03 1.6855E+03
 overstort            1.2512E+01 0.0000E+00 0.0000E+00 3.5596E+02 3.0349E+02
 SWT_Bodem_overstort_ 1.2512E+01 0.0000E+00 0.0000E+00 3.5596E+02 3.0349E+02
 SWT_Bodem_dik_slib   6.9723E+01 0.0000E+00 0.0000E+00 1.9789E+03 1.6880E+03
 SWT_Bodem_dunne_slib 9.6794E+01 0.0000E+00 0.0000E+00 2.7475E+03 2.3442E+03
 SWT_Bodem_normaal    5.5605E+02 0.0000E+00 0.0000E+00 1.5781E+04 1.3471E+04
 PROCESSES                               
 p1                  -2.1042E+00 0.0000E+00 0.0000E+00 1.3826E+01 1.3404E+01
 p2                  -2.9466E+00 0.0000E+00 0.0000E+00 1.3422E+01 1.8778E+01
 l4                  -3.1235E+00 0.0000E+00 0.0000E+00 1.3836E+01 1.9904E+01
 overstort           -5.6191E-01 0.0000E+00 0.0000E+00 6.2405E+00 3.5796E+00
 SWT_Bodem_overstort_-5.6191E-01 0.0000E+00 0.0000E+00 6.2405E+00 3.5796E+00
 SWT_Bodem_dik_slib  -3.1302E+00 0.0000E+00 0.0000E+00 2.4773E+01 1.9938E+01
 SWT_Bodem_dunne_slib-4.3454E+00 0.0000E+00 0.0000E+00 2.7607E+01 2.7682E+01
 SWT_Bodem_normaal   -2.4960E+01 0.0000E+00 0.0000E+00 1.1774E+02 1.5905E+02
 LOADS ( IN )                            
 p1                   0.0000E+00 0.0000E+00 0.0000E+00 0.0000E+00 0.0000E+00
 p2                   0.0000E+00 0.0000E+00 0.0000E+00 0.0000E+00 0.0000E+00
 l4                   0.0000E+00 0.0000E+00 0.0000E+00 0.0000E+00 0.0000E+00
 overstort            0.0000E+00 0.0000E+00 0.0000E+00 0.0000E+00 0.0000E+00
 SWT_Bodem_overstort_ 0.0000E+00 0.0000E+00 0.0000E+00 0.0000E+00 0.0000E+00
 SWT_Bodem_dik_slib   0.0000E+00 0.0000E+00 0.0000E+00 0.0000E+00 0.0000E+00
 SWT_Bodem_dunne_slib 0.0000E+00 0.0000E+00 0.0000E+00 0.0000E+00 0.0000E+00
 SWT_Bodem_normaal    0.0000E+00 0.0000E+00 0.0000E+00 0.0000E+00 0.0000E+00
 LOADS ( OUT )                           
 p1                   0.0000E+00 0.0000E+00 0.0000E+00 0.0000E+00 0.0000E+00
 p2                   0.0000E+00 0.0000E+00 0.0000E+00 0.0000E+00 0.0000E+00
 l4                   0.0000E+00 0.0000E+00 0.0000E+00 0.0000E+00 0.0000E+00
 overstort            0.0000E+00 0.0000E+00 0.0000E+00 0.0000E+00 0.0000E+00
 SWT_Bodem_overstort_ 0.0000E+00 0.0000E+00 0.0000E+00 0.0000E+00 0.0000E+00
 SWT_Bodem_dik_slib   0.0000E+00 0.0000E+00 0.0000E+00 0.0000E+00 0.0000E+00
 SWT_Bodem_dunne_slib 0.0000E+00 0.0000E+00 0.0000E+00 0.0000E+00 0.0000E+00
 SWT_Bodem_normaal    0.0000E+00 0.0000E+00 0.0000E+00 0.0000E+00 0.0000E+00
 TRANSPORT ( IN )                        
 p1                   3.1020E+00 0.0000E+00 0.0000E+00 3.7998E+01 2.2783E+01
 p2                   5.1422E+00 0.0000E+00 0.0000E+00 1.6174E+02 1.2946E+02
 l4                   1.0008E+01 0.0000E+00 0.0000E+00 2.1914E+02 1.8435E+02
 overstort            2.7061E-01 0.0000E+00 0.0000E+00 0.0000E+00 0.0000E+00
 SWT_Bodem_overstort_ 2.7061E-01 0.0000E+00 0.0000E+00 0.0000E+00 0.0000E+00
 SWT_Bodem_dik_slib   4.8827E+00 0.0000E+00 0.0000E+00 7.3031E+00 3.4677E+00
 SWT_Bodem_dunne_slib 3.1020E+00 0.0000E+00 0.0000E+00 3.7998E+01 2.2783E+01
 SWT_Bodem_normaal    2.0536E+01 0.0000E+00 0.0000E+00 7.3836E+01 4.9594E+01
 TRANSPORT ( OUT )                       
 p1                   2.0869E+00 0.0000E+00 0.0000E+00 5.5806E+01 3.5766E+01
 p2                   3.7220E+00 0.0000E+00 0.0000E+00 1.8075E+02 1.4764E+02
 l4                   8.5019E+00 0.0000E+00 0.0000E+00 2.3890E+02 2.0362E+02
 overstort            0.0000E+00 0.0000E+00 0.0000E+00 7.3031E+00 3.4677E+00
 SWT_Bodem_overstort_ 0.0000E+00 0.0000E+00 0.0000E+00 7.3031E+00 3.4677E+00
 SWT_Bodem_dik_slib   3.3726E+00 0.0000E+00 0.0000E+00 3.7998E+01 2.2783E+01
 SWT_Bodem_dunne_slib 1.0061E+00 0.0000E+00 0.0000E+00 7.3836E+01 4.9594E+01
 SWT_Bodem_normaal    8.5019E+00 0.0000E+00 0.0000E+00 2.3890E+02 2.0362E+02
 
   5.83% Completed


 DUMP OF INTERMEDIATE RESULTS IN SELECTED SEGMENTS
  TIME =   0D 21H  0M  0S .
 
 TOTAL MASS IN SYSTEM 2.0804E+03 5.2704E+03 3.5136E+03 2.1376E+04 1.8250E+04
 CHANGES BY PROCESSES-3.2234E+01 0.0000E+00 0.0000E+00 1.8195E+02 2.1027E+02
 CHANGES BY LOADS     0.0000E+00 0.0000E+00 0.0000E+00 0.0000E+00 0.0000E+00
 BOUNDARY INFLOWS     1.3859E+03 5.2704E+03 3.5136E+03 5.7096E+02 4.3920E+02
 BOUNDARY OUTFLOWS    8.3896E+00 2.0545E-02 1.3697E-02 2.4031E+02 2.0549E+02
                      NH4        CBOD5      CBOD5_2    OXY        CBOD5_3    
                                                                             
 CONCENTRATION                           
 p1                   6.2516E-01 1.7876E+00 1.1917E+00 4.9222E+00 4.1954E+00
 p2                   1.7654E-01 3.2177E-02 2.1451E-02 4.8725E+00 4.1720E+00
 l4                   1.7128E-01 1.1435E-02 7.6231E-03 4.8711E+00 4.1712E+00
 overstort            7.1128E+00 2.7177E+01 1.8118E+01 5.6138E+00 4.5477E+00
 SWT_Bodem_overstort_ 7.1128E+00 2.7177E+01 1.8118E+01 5.6138E+00 4.5477E+00
 SWT_Bodem_dik_slib   1.4396E+00 4.9747E+00 3.3164E+00 5.0091E+00 4.2392E+00
 SWT_Bodem_dunne_slib 5.0476E-01 1.3165E+00 8.7763E-01 4.9092E+00 4.1890E+00
 SWT_Bodem_normaal    1.9725E-01 1.1311E-01 7.5407E-02 4.8748E+00 4.1728E+00
 MASS                                    
 p1                   1.7452E+02 4.9902E+02 3.3268E+02 1.3741E+03 1.1712E+03
 p2                   6.8497E+01 1.2484E+01 8.3230E+00 1.8905E+03 1.6187E+03
 l4                   7.0425E+01 4.7016E+00 3.1344E+00 2.0029E+03 1.7151E+03
 overstort            5.4006E+02 2.0635E+03 1.3757E+03 4.2624E+02 3.4530E+02
 SWT_Bodem_overstort_ 5.4006E+02 2.0635E+03 1.3757E+03 4.2624E+02 3.4530E+02
 SWT_Bodem_dik_slib   6.0093E+02 2.0766E+03 1.3844E+03 2.0910E+03 1.7696E+03
 SWT_Bodem_dunne_slib 2.9075E+02 7.5830E+02 5.0553E+02 2.8278E+03 2.4129E+03
 SWT_Bodem_normaal    6.4865E+02 3.7197E+02 2.4798E+02 1.6031E+04 1.3722E+04
 PROCESSES                               
 p1                  -2.0555E+00 0.0000E+00 0.0000E+00 1.4211E+01 1.3405E+01
 p2                  -2.8784E+00 0.0000E+00 0.0000E+00 1.3897E+01 1.8780E+01
 l4                  -3.0511E+00 0.0000E+00 0.0000E+00 1.4335E+01 1.9906E+01
 overstort           -5.4889E-01 0.0000E+00 0.0000E+00 6.3714E+00 3.5799E+00
 SWT_Bodem_overstort_-5.4889E-01 0.0000E+00 0.0000E+00 6.3714E+00 3.5799E+00
 SWT_Bodem_dik_slib  -3.0577E+00 0.0000E+00 0.0000E+00 2.5391E+01 1.9939E+01
 SWT_Bodem_dunne_slib-4.2448E+00 0.0000E+00 0.0000E+00 2.8392E+01 2.7685E+01
 SWT_Bodem_normaal   -2.4382E+01 0.0000E+00 0.0000E+00 1.2180E+02 1.5907E+02
 LOADS ( IN )                            
 p1                   0.0000E+00 0.0000E+00 0.0000E+00 0.0000E+00 0.0000E+00
 p2                   0.0000E+00 0.0000E+00 0.0000E+00 0.0000E+00 0.0000E+00
 l4                   0.0000E+00 0.0000E+00 0.0000E+00 0.0000E+00 0.0000E+00
 overstort            0.0000E+00 0.0000E+00 0.0000E+00 0.0000E+00 0.0000E+00
 SWT_Bodem_overstort_ 0.0000E+00 0.0000E+00 0.0000E+00 0.0000E+00 0.0000E+00
 SWT_Bodem_dik_slib   0.0000E+00 0.0000E+00 0.0000E+00 0.0000E+00 0.0000E+00
 SWT_Bodem_dunne_slib 0.0000E+00 0.0000E+00 0.0000E+00 0.0000E+00 0.0000E+00
 SWT_Bodem_normaal    0.0000E+00 0.0000E+00 0.0000E+00 0.0000E+00 0.0000E+00
 LOADS ( OUT )                           
 p1                   0.0000E+00 0.0000E+00 0.0000E+00 0.0000E+00 0.0000E+00
 p2                   0.0000E+00 0.0000E+00 0.0000E+00 0.0000E+00 0.0000E+00
 l4                   0.0000E+00 0.0000E+00 0.0000E+00 0.0000E+00 0.0000E+00
 overstort            0.0000E+00 0.0000E+00 0.0000E+00 0.0000E+00 0.0000E+00
 SWT_Bodem_overstort_ 0.0000E+00 0.0000E+00 0.0000E+00 0.0000E+00 0.0000E+00
 SWT_Bodem_dik_slib   0.0000E+00 0.0000E+00 0.0000E+00 0.0000E+00 0.0000E+00
 SWT_Bodem_dunne_slib 0.0000E+00 0.0000E+00 0.0000E+00 0.0000E+00 0.0000E+00
 SWT_Bodem_normaal    0.0000E+00 0.0000E+00 0.0000E+00 0.0000E+00 0.0000E+00
 TRANSPORT ( IN )                        
 p1                   3.0404E+02 1.1303E+03 7.5352E+02 4.2034E+02 3.3931E+02
 p2                   1.7472E+01 3.0860E+01 2.0573E+01 2.9439E+02 2.4306E+02
 l4                   1.2280E+01 4.7221E+00 3.1481E+00 2.5448E+02 2.1513E+02
 overstort            1.3618E+03 5.2704E+03 3.5136E+03 5.7096E+02 4.3920E+02
 SWT_Bodem_overstort_ 1.3618E+03 5.2704E+03 3.5136E+03 5.7096E+02 4.3920E+02
 SWT_Bodem_dik_slib   8.3857E+02 3.2069E+03 2.1379E+03 5.0705E+02 4.0097E+02
 SWT_Bodem_dunne_slib 3.0404E+02 1.1303E+03 7.5352E+02 4.2034E+02 3.3931E+02
 SWT_Bodem_normaal    1.2537E+02 3.7199E+02 2.4799E+02 3.6841E+02 2.9823E+02
 TRANSPORT ( OUT )                       
 p1                   1.7434E+02 6.3126E+02 4.2084E+02 3.9084E+02 3.1653E+02
 p2                   1.1740E+01 1.8375E+01 1.2250E+01 2.8098E+02 2.3368E+02
 l4                   8.3896E+00 2.0545E-02 1.3697E-02 2.4031E+02 2.0549E+02
 overstort            8.3369E+02 3.2069E+03 2.1379E+03 5.0705E+02 4.0097E+02
 SWT_Bodem_overstort_ 8.3369E+02 3.2069E+03 2.1379E+03 5.0705E+02 4.0097E+02
 SWT_Bodem_dik_slib   3.0431E+02 1.1303E+03 7.5352E+02 4.2034E+02 3.3931E+02
 SWT_Bodem_dunne_slib 1.0584E+02 3.7199E+02 2.4799E+02 3.6841E+02 2.9823E+02
 SWT_Bodem_normaal    8.3896E+00 2.0545E-02 1.3697E-02 2.4031E+02 2.0549E+02
 
1
                                             Water quality calculation Sobek-WQ      
                                                                                     
                                                                                     
                                             T0: 1984.07.10 00:00:00  (scu=       1s)
   6.67% Completed


 DUMP OF INTERMEDIATE RESULTS IN SELECTED SEGMENTS
  TIME =   1D  0H  0M  0S .
 
 TOTAL MASS IN SYSTEM 1.3701E+04 2.2223E+03 3.2594E+04 1.7846E+04 1.9500E+04
 CHANGES BY PROCESSES-6.0914E+02-5.6617E+04-2.8134E+03-5.7140E+03 2.2971E+02
 CHANGES BY LOADS     0.0000E+00 0.0000E+00 0.0000E+00 0.0000E+00 0.0000E+00
 BOUNDARY INFLOWS     1.4854E+04 5.7406E+04 3.8270E+04 6.2189E+03 4.7838E+03
 BOUNDARY OUTFLOWS    2.6238E+03 3.8347E+03 6.3750E+03 4.0330E+03 3.7625E+03
                      NH4        CBOD5      CBOD5_2    OXY        CBOD5_3    
                                                                             
 CONCENTRATION                           
 p1                   3.0483E+00 4.8487E-01 7.2509E+00 3.9710E+00 4.3385E+00
 p2                   3.0484E+00 5.0005E-01 7.2524E+00 3.9704E+00 4.3386E+00
 l4                   3.0483E+00 5.0153E-01 7.2524E+00 3.9703E+00 4.3385E+00
 overstort            3.0483E+00 4.7559E-01 7.2502E+00 3.9714E+00 4.3386E+00
 SWT_Bodem_overstort_ 3.0483E+00 4.7559E-01 7.2502E+00 3.9714E+00 4.3386E+00
 SWT_Bodem_dik_slib   3.0483E+00 4.8001E-01 7.2503E+00 3.9711E+00 4.3384E+00
 SWT_Bodem_dunne_slib 3.0483E+00 4.8653E-01 7.2511E+00 3.9709E+00 4.3385E+00
 SWT_Bodem_normaal    3.0483E+00 4.9815E-01 7.2522E+00 3.9705E+00 4.3386E+00
 MASS                                    
 p1                   8.8273E+02 1.4041E+02 2.0997E+03 1.1499E+03 1.2564E+03
 p2                   1.2151E+03 1.9933E+02 2.8910E+03 1.5827E+03 1.7295E+03
 l4                   1.2878E+03 2.1188E+02 3.0639E+03 1.6773E+03 1.8329E+03
 overstort            2.4525E+02 3.8263E+01 5.8330E+02 3.1951E+02 3.4905E+02
 SWT_Bodem_overstort_ 2.4525E+02 3.8263E+01 5.8330E+02 3.1951E+02 3.4905E+02
 SWT_Bodem_dik_slib   1.3282E+03 2.0915E+02 3.1591E+03 1.7303E+03 1.8903E+03
 SWT_Bodem_dunne_slib 1.8196E+03 2.9042E+02 4.3284E+03 2.3703E+03 2.5898E+03
 SWT_Bodem_normaal    1.0308E+04 1.6845E+03 2.4523E+04 1.3426E+04 1.4671E+04
 PROCESSES                               
 p1                  -3.9911E+01-4.3939E+03-1.9323E+02-3.6897E+02 1.4967E+01
 p2                  -5.3332E+01-4.2856E+03-2.3813E+02-5.0508E+02 2.0220E+01
 l4                  -5.6403E+01-4.4016E+03-2.5029E+02-5.3503E+02 2.1431E+01
 overstort           -1.2216E+01-2.3167E+03-6.8722E+01-1.0869E+02 4.3172E+00
 SWT_Bodem_overstort_-1.2216E+01-2.3167E+03-6.8722E+01-1.0869E+02 4.3172E+00
 SWT_Bodem_dik_slib  -6.1310E+01-7.9947E+03-3.1146E+02-5.5768E+02 2.2789E+01
 SWT_Bodem_dunne_slib-8.1977E+01-8.7580E+03-3.9366E+02-7.5993E+02 3.0792E+01
 SWT_Bodem_normaal   -4.5363E+02-3.7547E+04-2.0396E+03-4.2877E+03 1.7181E+02
 LOADS ( IN )                            
 p1                   0.0000E+00 0.0000E+00 0.0000E+00 0.0000E+00 0.0000E+00
 p2                   0.0000E+00 0.0000E+00 0.0000E+00 0.0000E+00 0.0000E+00
 l4                   0.0000E+00 0.0000E+00 0.0000E+00 0.0000E+00 0.0000E+00
 overstort            0.0000E+00 0.0000E+00 0.0000E+00 0.0000E+00 0.0000E+00
 SWT_Bodem_overstort_ 0.0000E+00 0.0000E+00 0.0000E+00 0.0000E+00 0.0000E+00
 SWT_Bodem_dik_slib   0.0000E+00 0.0000E+00 0.0000E+00 0.0000E+00 0.0000E+00
 SWT_Bodem_dunne_slib 0.0000E+00 0.0000E+00 0.0000E+00 0.0000E+00 0.0000E+00
 SWT_Bodem_normaal    0.0000E+00 0.0000E+00 0.0000E+00 0.0000E+00 0.0000E+00
 LOADS ( OUT )                           
 p1                   0.0000E+00 0.0000E+00 0.0000E+00 0.0000E+00 0.0000E+00
 p2                   0.0000E+00 0.0000E+00 0.0000E+00 0.0000E+00 0.0000E+00
 l4                   0.0000E+00 0.0000E+00 0.0000E+00 0.0000E+00 0.0000E+00
 overstort            0.0000E+00 0.0000E+00 0.0000E+00 0.0000E+00 0.0000E+00
 SWT_Bodem_overstort_ 0.0000E+00 0.0000E+00 0.0000E+00 0.0000E+00 0.0000E+00
 SWT_Bodem_dik_slib   0.0000E+00 0.0000E+00 0.0000E+00 0.0000E+00 0.0000E+00
 SWT_Bodem_dunne_slib 0.0000E+00 0.0000E+00 0.0000E+00 0.0000E+00 0.0000E+00
 SWT_Bodem_normaal    0.0000E+00 0.0000E+00 0.0000E+00 0.0000E+00 0.0000E+00
 TRANSPORT ( IN )                        
 p1                   1.4328E+04 5.3323E+04 3.6907E+04 6.0192E+03 4.6854E+03
 p2                   7.5136E+03 2.2216E+04 1.9114E+04 4.8386E+03 4.1328E+03
 l4                   3.8976E+03 8.4436E+03 9.6861E+03 4.2425E+03 3.8589E+03
 overstort            1.4830E+04 5.7691E+04 3.8270E+04 6.2189E+03 4.7838E+03
 SWT_Bodem_overstort_ 1.4830E+04 5.7691E+04 3.8270E+04 6.2189E+03 4.7838E+03
 SWT_Bodem_dik_slib   1.5117E+04 5.8459E+04 3.8994E+04 6.2165E+03 4.7844E+03
 SWT_Bodem_dunne_slib 1.4328E+04 5.3443E+04 3.6907E+04 6.0192E+03 4.6854E+03
 SWT_Bodem_normaal    1.2737E+04 4.4095E+04 3.2690E+04 5.7163E+03 4.5391E+03
 TRANSPORT ( OUT )                       
 p1                   1.3580E+04 4.9288E+04 3.4946E+04 5.8743E+03 4.6154E+03
 p2                   6.3136E+03 1.7743E+04 1.5993E+04 4.6413E+03 4.0423E+03
 l4                   2.6238E+03 3.8347E+03 6.3750E+03 4.0330E+03 3.7625E+03
 overstort            1.5113E+04 5.7400E+04 3.8994E+04 6.2165E+03 4.7844E+03
 SWT_Bodem_overstort_ 1.5113E+04 5.7400E+04 3.8994E+04 6.2165E+03 4.7844E+03
 SWT_Bodem_dik_slib   1.4328E+04 5.2330E+04 3.6907E+04 6.0192E+03 4.6854E+03
 SWT_Bodem_dunne_slib 1.2717E+04 4.5153E+04 3.2690E+04 5.7163E+03 4.5391E+03
 SWT_Bodem_normaal    2.6238E+03 5.2344E+03 6.3750E+03 4.0330E+03 3.7625E+03
 
   7.50% Completed


 DUMP OF INTERMEDIATE RESULTS IN SELECTED SEGMENTS
  TIME =   1D  3H  0M  0S .
 
 TOTAL MASS IN SYSTEM 1.2583E+04 5.2893E+01 2.8655E+04 1.3352E+04 1.8818E+04
 CHANGES BY PROCESSES-5.2135E+02-2.1346E+03-2.4861E+03-3.7493E+03 2.2116E+02
 CHANGES BY LOADS     0.0000E+00 0.0000E+00 0.0000E+00 0.0000E+00 0.0000E+00
 BOUNDARY INFLOWS     2.4413E+01 0.0000E+00 0.0000E+00 0.0000E+00 0.0000E+00
 BOUNDARY OUTFLOWS    6.2149E+02 3.4853E+01 1.4524E+03 7.4477E+02 9.0332E+02
                      NH4        CBOD5      CBOD5_2    OXY        CBOD5_3    
                                                                             
 CONCENTRATION                           
 p1                   2.9023E+00 1.1473E-02 6.6071E+00 3.0815E+00 4.3405E+00
 p2                   2.9025E+00 1.2616E-02 6.6116E+00 3.0791E+00 4.3408E+00
 l4                   2.9024E+00 1.2728E-02 6.6116E+00 3.0787E+00 4.3406E+00
 overstort            2.9025E+00 1.0765E-02 6.6051E+00 3.0834E+00 4.3408E+00
 SWT_Bodem_overstort_ 2.9025E+00 1.0765E-02 6.6051E+00 3.0834E+00 4.3408E+00
 SWT_Bodem_dik_slib   2.9022E+00 1.1135E-02 6.6057E+00 3.0821E+00 4.3403E+00
 SWT_Bodem_dunne_slib 2.9023E+00 1.1600E-02 6.6077E+00 3.0812E+00 4.3405E+00
 SWT_Bodem_normaal    2.9024E+00 1.2473E-02 6.6109E+00 3.0793E+00 4.3407E+00
 MASS                                    
 p1                   8.0467E+02 3.1810E+00 1.8319E+03 8.5434E+02 1.2034E+03
 p2                   1.1215E+03 4.8748E+00 2.5547E+03 1.1898E+03 1.6773E+03
 l4                   1.1886E+03 5.2124E+00 2.7076E+03 1.2608E+03 1.7775E+03
 overstort            2.1762E+02 8.0712E-01 4.9523E+02 2.3118E+02 3.2546E+02
 SWT_Bodem_overstort_ 2.1762E+02 8.0712E-01 4.9523E+02 2.3118E+02 3.2546E+02
 SWT_Bodem_dik_slib   1.2010E+03 4.6077E+00 2.7335E+03 1.2754E+03 1.7961E+03
 SWT_Bodem_dunne_slib 1.6609E+03 6.6385E+00 3.7814E+03 1.7633E+03 2.4840E+03
 SWT_Bodem_normaal    9.5030E+03 4.0839E+01 2.1645E+04 1.0082E+04 1.4212E+04
 PROCESSES                               
 p1                  -3.3447E+01-1.6118E+02-1.6890E+02-2.3521E+02 1.4185E+01
 p2                  -4.6372E+01-1.6795E+02-2.1266E+02-3.3827E+02 1.9673E+01
 l4                  -4.9144E+01-1.7415E+02-2.2388E+02-3.5934E+02 2.0851E+01
 overstort           -9.1488E+00-6.9242E+01-5.5515E+01-5.9149E+01 3.8775E+00
 SWT_Bodem_overstort_-9.1488E+00-6.9242E+01-5.5515E+01-5.9149E+01 3.8775E+00
 SWT_Bodem_dik_slib  -5.0090E+01-2.8152E+02-2.6815E+02-3.4373E+02 2.1241E+01
 SWT_Bodem_dunne_slib-6.8998E+01-3.2405E+02-3.4499E+02-4.8716E+02 2.9264E+01
 SWT_Bodem_normaal   -3.9312E+02-1.4598E+03-1.8175E+03-2.8592E+03 1.6678E+02
 LOADS ( IN )                            
 p1                   0.0000E+00 0.0000E+00 0.0000E+00 0.0000E+00 0.0000E+00
 p2                   0.0000E+00 0.0000E+00 0.0000E+00 0.0000E+00 0.0000E+00
 l4                   0.0000E+00 0.0000E+00 0.0000E+00 0.0000E+00 0.0000E+00
 overstort            0.0000E+00 0.0000E+00 0.0000E+00 0.0000E+00 0.0000E+00
 SWT_Bodem_overstort_ 0.0000E+00 0.0000E+00 0.0000E+00 0.0000E+00 0.0000E+00
 SWT_Bodem_dik_slib   0.0000E+00 0.0000E+00 0.0000E+00 0.0000E+00 0.0000E+00
 SWT_Bodem_dunne_slib 0.0000E+00 0.0000E+00 0.0000E+00 0.0000E+00 0.0000E+00
 SWT_Bodem_normaal    0.0000E+00 0.0000E+00 0.0000E+00 0.0000E+00 0.0000E+00
 LOADS ( OUT )                           
 p1                   0.0000E+00 0.0000E+00 0.0000E+00 0.0000E+00 0.0000E+00
 p2                   0.0000E+00 0.0000E+00 0.0000E+00 0.0000E+00 0.0000E+00
 l4                   0.0000E+00 0.0000E+00 0.0000E+00 0.0000E+00 0.0000E+00
 overstort            0.0000E+00 0.0000E+00 0.0000E+00 0.0000E+00 0.0000E+00
 SWT_Bodem_overstort_ 0.0000E+00 0.0000E+00 0.0000E+00 0.0000E+00 0.0000E+00
 SWT_Bodem_dik_slib   0.0000E+00 0.0000E+00 0.0000E+00 0.0000E+00 0.0000E+00
 SWT_Bodem_dunne_slib 0.0000E+00 0.0000E+00 0.0000E+00 0.0000E+00 0.0000E+00
 SWT_Bodem_normaal    0.0000E+00 0.0000E+00 0.0000E+00 0.0000E+00 0.0000E+00
 TRANSPORT ( IN )                        
 p1                   1.0049E+02 1.3272E+02 1.9000E+02 1.4030E+02 1.4297E+02
 p2                   4.1953E+02 5.1004E+01 9.4673E+02 5.2237E+02 6.1019E+02
 l4                   5.7138E+02 4.5657E+00 1.3199E+03 6.8755E+02 8.2714E+02
 overstort            0.0000E+00 3.1787E+01 0.0000E+00 0.0000E+00 0.0000E+00
 SWT_Bodem_overstort_ 0.0000E+00 3.1787E+01 0.0000E+00 0.0000E+00 0.0000E+00
 SWT_Bodem_dik_slib   2.3365E+01 1.0877E+02 3.2556E+01 2.9181E+01 2.7469E+01
 SWT_Bodem_dunne_slib 1.0049E+02 1.4903E+02 1.9000E+02 1.4030E+02 1.4297E+02
 SWT_Bodem_normaal    2.0974E+02 0.0000E+00 3.9201E+02 2.6022E+02 2.7805E+02
 TRANSPORT ( OUT )                       
 p1                   1.4510E+02 1.0877E+02 2.8897E+02 2.0066E+02 2.1009E+02
 p2                   4.6678E+02 7.7508E+01 1.0703E+03 5.7704E+02 6.8204E+02
 l4                   6.2149E+02 3.7079E+01 1.4524E+03 7.4477E+02 9.0332E+02
 overstort            1.8483E+01 0.0000E+00 3.2556E+01 2.9181E+01 2.7469E+01
 SWT_Bodem_overstort_ 1.8483E+01 0.0000E+00 3.2556E+01 2.9181E+01 2.7469E+01
 SWT_Bodem_dik_slib   1.0049E+02 3.1787E+01 1.9000E+02 1.4030E+02 1.4297E+02
 SWT_Bodem_dunne_slib 1.9021E+02 1.0877E+02 3.9201E+02 2.6022E+02 2.7805E+02
 SWT_Bodem_normaal    6.2149E+02 1.8388E+02 1.4524E+03 7.4477E+02 9.0332E+02
 
1
                                             Water quality calculation Sobek-WQ      
                                                                                     
                                                                                     
                                             T0: 1984.07.10 00:00:00  (scu=       1s)
   8.33% Completed


 DUMP OF INTERMEDIATE RESULTS IN SELECTED SEGMENTS
  TIME =   1D  6H  0M  0S .
 
 TOTAL MASS IN SYSTEM 1.1908E+04 1.2351E+00 2.5940E+04 1.0204E+04 1.8651E+04
 CHANGES BY PROCESSES-4.4060E+02-5.1328E+01-2.1394E+03-2.9003E+03 2.2778E+02
 CHANGES BY LOADS     0.0000E+00 0.0000E+00 0.0000E+00 0.0000E+00 0.0000E+00
 BOUNDARY INFLOWS     2.4413E+01 0.0000E+00 0.0000E+00 0.0000E+00 0.0000E+00
 BOUNDARY OUTFLOWS    2.5803E+02 3.2967E-01 5.7585E+02 2.4828E+02 3.9445E+02
                      NH4        CBOD5      CBOD5_2    OXY        CBOD5_3    
                                                                             
 CONCENTRATION                           
 p1                   2.7736E+00 2.5897E-04 6.0377E+00 2.3800E+00 4.3440E+00
 p2                   2.7739E+00 3.0393E-04 6.0448E+00 2.3749E+00 4.3446E+00
 l4                   2.7737E+00 3.0839E-04 6.0449E+00 2.3742E+00 4.3443E+00
 overstort            2.7740E+00 2.2904E-04 6.0343E+00 2.3845E+00 4.3448E+00
 SWT_Bodem_overstort_ 2.7740E+00 2.2904E-04 6.0343E+00 2.3845E+00 4.3448E+00
 SWT_Bodem_dik_slib   2.7734E+00 2.4664E-04 6.0355E+00 2.3815E+00 4.3437E+00
 SWT_Bodem_dunne_slib 2.7736E+00 2.6406E-04 6.0386E+00 2.3794E+00 4.3441E+00
 SWT_Bodem_normaal    2.7738E+00 2.9829E-04 6.0437E+00 2.3754E+00 4.3444E+00
 MASS                                    
 p1                   7.5997E+02 7.0959E-02 1.6544E+03 6.5213E+02 1.1903E+03
 p2                   1.0629E+03 1.1646E-01 2.3162E+03 9.0999E+02 1.6647E+03
 l4                   1.1264E+03 1.2524E-01 2.4548E+03 9.6415E+02 1.7642E+03
 overstort            2.0398E+02 1.6842E-02 4.4372E+02 1.7534E+02 3.1949E+02
 SWT_Bodem_overstort_ 2.0398E+02 1.6842E-02 4.4372E+02 1.7534E+02 3.1949E+02
 SWT_Bodem_dik_slib   1.1317E+03 1.0064E-01 2.4627E+03 9.7174E+02 1.7724E+03
 SWT_Bodem_dunne_slib 1.5692E+03 1.4939E-01 3.4164E+03 1.3462E+03 2.4578E+03
 SWT_Bodem_normaal    9.0034E+03 9.6823E-01 1.9617E+04 7.7104E+03 1.4101E+04
 PROCESSES                               
 p1                  -2.8155E+01-3.7353E+00-1.4540E+02-1.7835E+02 1.4548E+01
 p2                  -3.9295E+01-4.1599E+00-1.8296E+02-2.6494E+02 2.0319E+01
 l4                  -4.1640E+01-4.3396E+00-1.9253E+02-2.8184E+02 2.1537E+01
 overstort           -7.5856E+00-1.5290E+00-4.7863E+01-4.1161E+01 3.9155E+00
 SWT_Bodem_overstort_-7.5856E+00-1.5290E+00-4.7863E+01-4.1161E+01 3.9155E+00
 SWT_Bodem_dik_slib  -4.1974E+01-6.3873E+00-2.3096E+02-2.5460E+02 2.1684E+01
 SWT_Bodem_dunne_slib-5.8122E+01-7.5687E+00-2.9699E+02-3.7074E+02 3.0035E+01
 SWT_Bodem_normaal   -3.3292E+02-3.5843E+01-1.5636E+03-2.2338E+03 1.7215E+02
 LOADS ( IN )                            
 p1                   0.0000E+00 0.0000E+00 0.0000E+00 0.0000E+00 0.0000E+00
 p2                   0.0000E+00 0.0000E+00 0.0000E+00 0.0000E+00 0.0000E+00
 l4                   0.0000E+00 0.0000E+00 0.0000E+00 0.0000E+00 0.0000E+00
 overstort            0.0000E+00 0.0000E+00 0.0000E+00 0.0000E+00 0.0000E+00
 SWT_Bodem_overstort_ 0.0000E+00 0.0000E+00 0.0000E+00 0.0000E+00 0.0000E+00
 SWT_Bodem_dik_slib   0.0000E+00 0.0000E+00 0.0000E+00 0.0000E+00 0.0000E+00
 SWT_Bodem_dunne_slib 0.0000E+00 0.0000E+00 0.0000E+00 0.0000E+00 0.0000E+00
 SWT_Bodem_normaal    0.0000E+00 0.0000E+00 0.0000E+00 0.0000E+00 0.0000E+00
 LOADS ( OUT )                           
 p1                   0.0000E+00 0.0000E+00 0.0000E+00 0.0000E+00 0.0000E+00
 p2                   0.0000E+00 0.0000E+00 0.0000E+00 0.0000E+00 0.0000E+00
 l4                   0.0000E+00 0.0000E+00 0.0000E+00 0.0000E+00 0.0000E+00
 overstort            0.0000E+00 0.0000E+00 0.0000E+00 0.0000E+00 0.0000E+00
 SWT_Bodem_overstort_ 0.0000E+00 0.0000E+00 0.0000E+00 0.0000E+00 0.0000E+00
 SWT_Bodem_dik_slib   0.0000E+00 0.0000E+00 0.0000E+00 0.0000E+00 0.0000E+00
 SWT_Bodem_dunne_slib 0.0000E+00 0.0000E+00 0.0000E+00 0.0000E+00 0.0000E+00
 SWT_Bodem_normaal    0.0000E+00 0.0000E+00 0.0000E+00 0.0000E+00 0.0000E+00
 TRANSPORT ( IN )                        
 p1                   3.8262E+01 3.2443E+00 4.3481E+01 6.3788E+01 5.5250E+01
 p2                   1.6998E+02 1.6255E+00 3.4802E+02 1.8855E+02 2.6030E+02
 l4                   2.3752E+02 0.0000E+00 5.1564E+02 2.3349E+02 3.5957E+02
 overstort            0.0000E+00 7.3871E-01 4.1016E-02 0.0000E+00 0.0000E+00
 SWT_Bodem_overstort_ 0.0000E+00 7.3871E-01 4.1016E-02 0.0000E+00 0.0000E+00
 SWT_Bodem_dik_slib   1.0936E+01 2.6190E+00 3.6886E+00 1.4685E+01 9.8915E+00
 SWT_Bodem_dunne_slib 3.8262E+01 3.6986E+00 4.3481E+01 6.3788E+01 5.5250E+01
 SWT_Bodem_normaal    9.1352E+01 0.0000E+00 1.1142E+02 1.1013E+02 1.1149E+02
 TRANSPORT ( OUT )                       
 p1                   5.4810E+01 2.6190E+00 7.5582E+01 8.7657E+01 8.2945E+01
 p2                   1.8930E+02 2.2240E+00 4.0354E+02 2.0337E+02 2.9316E+02
 l4                   2.5803E+02 7.4752E-01 5.7585E+02 2.4828E+02 3.9445E+02
 overstort            6.0535E+00 0.0000E+00 3.6886E+00 1.4685E+01 9.8915E+00
 SWT_Bodem_overstort_ 6.0535E+00 0.0000E+00 3.6886E+00 1.4685E+01 9.8915E+00
 SWT_Bodem_dik_slib   3.8262E+01 7.3871E-01 4.3522E+01 6.3788E+01 5.5250E+01
 SWT_Bodem_dunne_slib 7.1822E+01 2.6190E+00 1.1142E+02 1.1013E+02 1.1149E+02
 SWT_Bodem_normaal    2.5803E+02 4.0283E+00 5.7585E+02 2.4828E+02 3.9445E+02
 
   9.17% Completed


 DUMP OF INTERMEDIATE RESULTS IN SELECTED SEGMENTS
  TIME =   1D  9H  0M  0S .
 
 TOTAL MASS IN SYSTEM 1.1389E+04 2.9122E-02 2.3725E+04 7.8530E+03 1.8616E+04
 CHANGES BY PROCESSES-3.7256E+02-1.2009E+00-1.8504E+03-2.2188E+03 2.3881E+02
 CHANGES BY LOADS     0.0000E+00 0.0000E+00 0.0000E+00 0.0000E+00 0.0000E+00
 BOUNDARY INFLOWS     2.4413E+01 0.0000E+00 0.0000E+00 0.0000E+00 0.0000E+00
 BOUNDARY OUTFLOWS    1.7120E+02 5.1273E-03 3.6505E+02 1.3188E+02 2.7392E+02
                      NH4        CBOD5      CBOD5_2    OXY        CBOD5_3    
                                                                             
 CONCENTRATION                           
 p1                   2.6614E+00 5.9561E-06 5.5392E+00 1.8401E+00 4.3501E+00
 p2                   2.6618E+00 7.2861E-06 5.5475E+00 1.8325E+00 4.3509E+00
 l4                   2.6615E+00 7.4194E-06 5.5477E+00 1.8316E+00 4.3505E+00
 overstort            2.6620E+00 4.9697E-06 5.5347E+00 1.8476E+00 4.3515E+00
 SWT_Bodem_overstort_ 2.6620E+00 4.9697E-06 5.5347E+00 1.8476E+00 4.3515E+00
 SWT_Bodem_dik_slib   2.6612E+00 5.6100E-06 5.5367E+00 1.8423E+00 4.3498E+00
 SWT_Bodem_dunne_slib 2.6614E+00 6.1078E-06 5.5402E+00 1.8392E+00 4.3502E+00
 SWT_Bodem_normaal    2.6616E+00 7.1188E-06 5.5463E+00 1.8333E+00 4.3506E+00
 MASS                                    
 p1                   7.2630E+02 1.6254E-03 1.5117E+03 5.0218E+02 1.1872E+03
 p2                   1.0170E+03 2.7839E-03 2.1196E+03 7.0016E+02 1.6624E+03
 l4                   1.0778E+03 3.0044E-03 2.2465E+03 7.4168E+02 1.7617E+03
 overstort            1.9445E+02 3.6302E-04 4.0429E+02 1.3496E+02 3.1786E+02
 SWT_Bodem_overstort_ 1.9445E+02 3.6302E-04 4.0429E+02 1.3496E+02 3.1786E+02
 SWT_Bodem_dik_slib   1.0807E+03 2.2782E-03 2.2484E+03 7.4813E+02 1.7664E+03
 SWT_Bodem_dunne_slib 1.4999E+03 3.4422E-03 3.1223E+03 1.0365E+03 2.4517E+03
 SWT_Bodem_normaal    8.6139E+03 2.3039E-02 1.7950E+04 5.9333E+03 1.4080E+04
 PROCESSES                               
 p1                  -2.3790E+01-8.4447E-02-1.2610E+02-1.3343E+02 1.5229E+01
 p2                  -3.3244E+01-9.9862E-02-1.5794E+02-2.0543E+02 2.1324E+01
 l4                  -3.5224E+01-1.0472E-01-1.6611E+02-2.1893E+02 2.2603E+01
 overstort           -6.3851E+00-3.2568E-02-4.1828E+01-2.7642E+01 4.0778E+00
 SWT_Bodem_overstort_-6.3851E+00-3.2568E-02-4.1828E+01-2.7642E+01 4.0778E+00
 SWT_Bodem_dik_slib  -3.5425E+01-1.4184E-01-2.0081E+02-1.8530E+02 2.2666E+01
 SWT_Bodem_dunne_slib-4.9118E+01-1.7243E-01-2.5745E+02-2.7851E+02 3.1450E+01
 SWT_Bodem_normaal   -2.8163E+02-8.5402E-01-1.3503E+03-1.7274E+03 1.8062E+02
 LOADS ( IN )                            
 p1                   0.0000E+00 0.0000E+00 0.0000E+00 0.0000E+00 0.0000E+00
 p2                   0.0000E+00 0.0000E+00 0.0000E+00 0.0000E+00 0.0000E+00
 l4                   0.0000E+00 0.0000E+00 0.0000E+00 0.0000E+00 0.0000E+00
 overstort            0.0000E+00 0.0000E+00 0.0000E+00 0.0000E+00 0.0000E+00
 SWT_Bodem_overstort_ 0.0000E+00 0.0000E+00 0.0000E+00 0.0000E+00 0.0000E+00
 SWT_Bodem_dik_slib   0.0000E+00 0.0000E+00 0.0000E+00 0.0000E+00 0.0000E+00
 SWT_Bodem_dunne_slib 0.0000E+00 0.0000E+00 0.0000E+00 0.0000E+00 0.0000E+00
 SWT_Bodem_normaal    0.0000E+00 0.0000E+00 0.0000E+00 0.0000E+00 0.0000E+00
 LOADS ( OUT )                           
 p1                   0.0000E+00 0.0000E+00 0.0000E+00 0.0000E+00 0.0000E+00
 p2                   0.0000E+00 0.0000E+00 0.0000E+00 0.0000E+00 0.0000E+00
 l4                   0.0000E+00 0.0000E+00 0.0000E+00 0.0000E+00 0.0000E+00
 overstort            0.0000E+00 0.0000E+00 0.0000E+00 0.0000E+00 0.0000E+00
 SWT_Bodem_overstort_ 0.0000E+00 0.0000E+00 0.0000E+00 0.0000E+00 0.0000E+00
 SWT_Bodem_dik_slib   0.0000E+00 0.0000E+00 0.0000E+00 0.0000E+00 0.0000E+00
 SWT_Bodem_dunne_slib 0.0000E+00 0.0000E+00 0.0000E+00 0.0000E+00 0.0000E+00
 SWT_Bodem_normaal    0.0000E+00 0.0000E+00 0.0000E+00 0.0000E+00 0.0000E+00
 TRANSPORT ( IN )                        
 p1                   2.3590E+01 7.4676E-02 1.1127E+01 5.1045E+01 3.4389E+01
 p2                   1.1051E+02 4.0422E-02 2.0623E+02 1.1487E+02 1.7735E+02
 l4                   1.5780E+02 0.0000E+00 3.2285E+02 1.2834E+02 2.4881E+02
 overstort            0.0000E+00 1.6089E-02 2.3940E+00 0.0000E+00 0.0000E+00
 SWT_Bodem_overstort_ 0.0000E+00 1.6089E-02 2.3940E+00 0.0000E+00 0.0000E+00
 SWT_Bodem_dik_slib   8.0281E+00 5.9562E-02 0.0000E+00 1.2739E+01 5.7082E+00
 SWT_Bodem_dunne_slib 2.3590E+01 8.6039E-02 1.1127E+01 5.1045E+01 3.4389E+01
 SWT_Bodem_normaal    6.3330E+01 0.0000E+00 4.7780E+01 8.2194E+01 7.1918E+01
 TRANSPORT ( OUT )                       
 p1                   3.3469E+01 5.9562E-02 2.7698E+01 6.7558E+01 5.2717E+01
 p2                   1.2313E+02 5.4235E-02 2.4486E+02 1.1927E+02 2.0100E+02
 l4                   1.7120E+02 1.7510E-02 3.6505E+02 1.3188E+02 2.7392E+02
 overstort            3.1454E+00 0.0000E+00 0.0000E+00 1.2739E+01 5.7082E+00
 SWT_Bodem_overstort_ 3.1454E+00 0.0000E+00 0.0000E+00 1.2739E+01 5.7082E+00
 SWT_Bodem_dik_slib   2.3590E+01 1.6089E-02 1.3521E+01 5.1045E+01 3.4389E+01
 SWT_Bodem_dunne_slib 4.3800E+01 5.9562E-02 4.7780E+01 8.2194E+01 7.1918E+01
 SWT_Bodem_normaal    1.7120E+02 9.1166E-02 3.6505E+02 1.3188E+02 2.7392E+02
 
1
                                             Water quality calculation Sobek-WQ      
                                                                                     
                                                                                     
                                             T0: 1984.07.10 00:00:00  (scu=       1s)
  10.00% Completed


 DUMP OF INTERMEDIATE RESULTS IN SELECTED SEGMENTS
  TIME =   1D 12H  0M  0S .
 
 TOTAL MASS IN SYSTEM 1.0959E+04 6.9454E-04 2.1837E+04 6.1332E+03 1.8632E+04
 CHANGES BY PROCESSES-3.1332E+02-2.8325E-02-1.6003E+03-1.6323E+03 2.5146E+02
 CHANGES BY LOADS     0.0000E+00 0.0000E+00 0.0000E+00 0.0000E+00 0.0000E+00
 BOUNDARY INFLOWS     2.4413E+01 0.0000E+00 0.0000E+00 0.0000E+00 0.0000E+00
 BOUNDARY OUTFLOWS    1.4119E+02 1.0221E-04 2.8782E+02 8.7477E+01 2.3548E+02
                      NH4        CBOD5      CBOD5_2    OXY        CBOD5_3    
                                                                             
 CONCENTRATION                           
 p1                   2.5640E+00 1.4029E-07 5.1041E+00 1.4411E+00 4.3592E+00
 p2                   2.5644E+00 1.7511E-07 5.1126E+00 1.4317E+00 4.3600E+00
 l4                   2.5642E+00 1.7861E-07 5.1128E+00 1.4306E+00 4.3595E+00
 overstort            2.5648E+00 1.1202E-07 5.0990E+00 1.4511E+00 4.3610E+00
 SWT_Bodem_overstort_ 2.5648E+00 1.1202E-07 5.0990E+00 1.4511E+00 4.3610E+00
 SWT_Bodem_dik_slib   2.5638E+00 1.3147E-07 5.1015E+00 1.4437E+00 4.3588E+00
 SWT_Bodem_dunne_slib 2.5640E+00 1.4427E-07 5.1051E+00 1.4400E+00 4.3593E+00
 SWT_Bodem_normaal    2.5643E+00 1.7072E-07 5.1114E+00 1.4328E+00 4.3597E+00
 MASS                                    
 p1                   6.9868E+02 3.8228E-05 1.3908E+03 3.9269E+02 1.1879E+03
 p2                   9.7878E+02 6.6835E-05 1.9514E+03 5.4645E+02 1.6641E+03
 l4                   1.0373E+03 7.2253E-05 2.0682E+03 5.7872E+02 1.7635E+03
 overstort            1.8689E+02 8.1624E-06 3.7154E+02 1.0574E+02 3.1777E+02
 SWT_Bodem_overstort_ 1.8689E+02 8.1624E-06 3.7154E+02 1.0574E+02 3.1777E+02
 SWT_Bodem_dik_slib   1.0393E+03 5.3294E-05 2.0680E+03 5.8523E+02 1.7669E+03
 SWT_Bodem_dunne_slib 1.4429E+03 8.1192E-05 2.8730E+03 8.1035E+02 2.4532E+03
 SWT_Bodem_normaal    8.2897E+03 5.5189E-04 1.6524E+04 4.6319E+03 1.4094E+04
 PROCESSES                               
 p1                  -2.0015E+01-1.9515E-03-1.0950E+02-9.5113E+01 1.6024E+01
 p2                  -2.7952E+01-2.3914E-03-1.3621E+02-1.5388E+02 2.2463E+01
 l4                  -2.9612E+01-2.5155E-03-1.4318E+02-1.6442E+02 2.3812E+01
 overstort           -5.3718E+00-7.1208E-04-3.6712E+01-1.6429E+01 4.2805E+00
 SWT_Bodem_overstort_-5.3718E+00-7.1208E-04-3.6712E+01-1.6429E+01 4.2805E+00
 SWT_Bodem_dik_slib  -2.9801E+01-3.2456E-03-1.7501E+02-1.2668E+02 2.3833E+01
 SWT_Bodem_dunne_slib-4.1321E+01-4.0041E-03-2.2341E+02-1.9971E+02 3.3095E+01
 SWT_Bodem_normaal   -2.3683E+02-2.0364E-02-1.1652E+03-1.2894E+03 1.9025E+02
 LOADS ( IN )                            
 p1                   0.0000E+00 0.0000E+00 0.0000E+00 0.0000E+00 0.0000E+00
 p2                   0.0000E+00 0.0000E+00 0.0000E+00 0.0000E+00 0.0000E+00
 l4                   0.0000E+00 0.0000E+00 0.0000E+00 0.0000E+00 0.0000E+00
 overstort            0.0000E+00 0.0000E+00 0.0000E+00 0.0000E+00 0.0000E+00
 SWT_Bodem_overstort_ 0.0000E+00 0.0000E+00 0.0000E+00 0.0000E+00 0.0000E+00
 SWT_Bodem_dik_slib   0.0000E+00 0.0000E+00 0.0000E+00 0.0000E+00 0.0000E+00
 SWT_Bodem_dunne_slib 0.0000E+00 0.0000E+00 0.0000E+00 0.0000E+00 0.0000E+00
 SWT_Bodem_normaal    0.0000E+00 0.0000E+00 0.0000E+00 0.0000E+00 0.0000E+00
 LOADS ( OUT )                           
 p1                   0.0000E+00 0.0000E+00 0.0000E+00 0.0000E+00 0.0000E+00
 p2                   0.0000E+00 0.0000E+00 0.0000E+00 0.0000E+00 0.0000E+00
 l4                   0.0000E+00 0.0000E+00 0.0000E+00 0.0000E+00 0.0000E+00
 overstort            0.0000E+00 0.0000E+00 0.0000E+00 0.0000E+00 0.0000E+00
 SWT_Bodem_overstort_ 0.0000E+00 0.0000E+00 0.0000E+00 0.0000E+00 0.0000E+00
 SWT_Bodem_dik_slib   0.0000E+00 0.0000E+00 0.0000E+00 0.0000E+00 0.0000E+00
 SWT_Bodem_dunne_slib 0.0000E+00 0.0000E+00 0.0000E+00 0.0000E+00 0.0000E+00
 SWT_Bodem_normaal    0.0000E+00 0.0000E+00 0.0000E+00 0.0000E+00 0.0000E+00
 TRANSPORT ( IN )                        
 p1                   1.8674E+01 1.7423E-03 1.5165E+00 4.9011E+01 2.7693E+01
 p2                   9.0080E+01 9.7876E-04 1.5602E+02 8.9282E+01 1.5086E+02
 l4                   1.3028E+02 0.0000E+00 2.5271E+02 8.8939E+01 2.1348E+02
 overstort            0.0000E+00 3.5723E-04 3.9641E+00 0.0000E+00 0.0000E+00
 SWT_Bodem_overstort_ 0.0000E+00 3.5723E-04 3.9641E+00 0.0000E+00 0.0000E+00
 SWT_Bodem_dik_slib   7.0730E+00 1.3780E-03 8.7330E-02 1.2792E+01 4.3705E+00
 SWT_Bodem_dunne_slib 1.8674E+01 2.0211E-03 1.5165E+00 4.9011E+01 2.7693E+01
 SWT_Bodem_normaal    5.3846E+01 0.0000E+00 2.7383E+01 7.5490E+01 5.9229E+01
 TRANSPORT ( OUT )                       
 p1                   2.6277E+01 1.3780E-03 1.2845E+01 6.3384E+01 4.3021E+01
 p2                   1.0036E+02 1.3044E-03 1.8804E+02 8.9110E+01 1.7160E+02
 l4                   1.4119E+02 4.1671E-04 2.8782E+02 8.7477E+01 2.3548E+02
 overstort            2.1903E+00 0.0000E+00 0.0000E+00 1.2792E+01 4.3705E+00
 SWT_Bodem_overstort_ 2.1903E+00 0.0000E+00 0.0000E+00 1.2792E+01 4.3705E+00
 SWT_Bodem_dik_slib   1.8674E+01 3.5723E-04 5.4807E+00 4.9011E+01 2.7693E+01
 SWT_Bodem_dunne_slib 3.4316E+01 1.3780E-03 2.7470E+01 7.5490E+01 5.9229E+01
 SWT_Bodem_normaal    1.4119E+02 2.1233E-03 2.8782E+02 8.7477E+01 2.3548E+02
 
  10.83% Completed


 DUMP OF INTERMEDIATE RESULTS IN SELECTED SEGMENTS
  TIME =   1D 15H  0M  0S .
 
 TOTAL MASS IN SYSTEM 1.0591E+04 1.6706E-05 2.0199E+04 4.9249E+03 1.8674E+04
 CHANGES BY PROCESSES-2.6381E+02-6.7555E-04-1.3880E+03-1.1434E+03 2.6406E+02
 CHANGES BY LOADS     0.0000E+00 0.0000E+00 0.0000E+00 0.0000E+00 0.0000E+00
 BOUNDARY INFLOWS     2.4413E+01 0.0000E+00 0.0000E+00 0.0000E+00 0.0000E+00
 BOUNDARY OUTFLOWS    1.2810E+02 2.2807E-06 2.4981E+02 6.4940E+01 2.2192E+02
                      NH4        CBOD5      CBOD5_2    OXY        CBOD5_3    
                                                                             
 CONCENTRATION                           
 p1                   2.4791E+00 3.3564E-09 4.7232E+00 1.1596E+00 4.3710E+00
 p2                   2.4796E+00 4.2256E-09 4.7315E+00 1.1491E+00 4.3719E+00
 l4                   2.4794E+00 4.3134E-09 4.7317E+00 1.1480E+00 4.3714E+00
 overstort            2.4801E+00 2.6132E-09 4.7180E+00 1.1713E+00 4.3732E+00
 SWT_Bodem_overstort_ 2.4801E+00 2.6132E-09 4.7180E+00 1.1713E+00 4.3732E+00
 SWT_Bodem_dik_slib   2.4790E+00 3.1391E-09 4.7208E+00 1.1625E+00 4.3707E+00
 SWT_Bodem_dunne_slib 2.4792E+00 3.4561E-09 4.7243E+00 1.1583E+00 4.3712E+00
 SWT_Bodem_normaal    2.4794E+00 4.1159E-09 4.7303E+00 1.1503E+00 4.3716E+00
 MASS                                    
 p1                   6.7517E+02 9.1410E-07 1.2863E+03 3.1580E+02 1.1904E+03
 p2                   9.4603E+02 1.6122E-06 1.8052E+03 4.3842E+02 1.6680E+03
 l4                   1.0025E+03 1.7442E-06 1.9133E+03 4.6419E+02 1.7676E+03
 overstort            1.8054E+02 1.9023E-07 3.4345E+02 8.5265E+01 3.1835E+02
 SWT_Bodem_overstort_ 1.8054E+02 1.9023E-07 3.4345E+02 8.5265E+01 3.1835E+02
 SWT_Bodem_dik_slib   1.0042E+03 1.2716E-06 1.9124E+03 4.7090E+02 1.7705E+03
 SWT_Bodem_dunne_slib 1.3944E+03 1.9439E-06 2.6572E+03 6.5148E+02 2.4586E+03
 SWT_Bodem_normaal    8.0122E+03 1.3300E-05 1.5286E+04 3.7172E+03 1.4127E+04
 PROCESSES                               
 p1                  -1.6869E+01-4.6111E-05-9.5417E+01-6.3354E+01 1.6819E+01
 p2                  -2.3523E+01-5.7445E-05-1.1773E+02-1.1077E+02 2.3597E+01
 l4                  -2.4915E+01-6.0509E-05-1.2368E+02-1.1881E+02 2.5015E+01
 overstort           -4.5344E+00-1.6177E-05-3.2385E+01-7.2970E+00 4.4870E+00
 SWT_Bodem_overstort_-4.5344E+00-1.6177E-05-3.2385E+01-7.2970E+00 4.4870E+00
 SWT_Bodem_dik_slib  -2.5123E+01-7.6361E-05-1.5314E+02-7.8360E+01 2.5007E+01
 SWT_Bodem_dunne_slib-3.4818E+01-9.4826E-05-1.9452E+02-1.3433E+02 3.4740E+01
 SWT_Bodem_normaal   -1.9933E+02-4.8819E-04-1.0079E+03-9.2341E+02 1.9983E+02
 LOADS ( IN )                            
 p1                   0.0000E+00 0.0000E+00 0.0000E+00 0.0000E+00 0.0000E+00
 p2                   0.0000E+00 0.0000E+00 0.0000E+00 0.0000E+00 0.0000E+00
 l4                   0.0000E+00 0.0000E+00 0.0000E+00 0.0000E+00 0.0000E+00
 overstort            0.0000E+00 0.0000E+00 0.0000E+00 0.0000E+00 0.0000E+00
 SWT_Bodem_overstort_ 0.0000E+00 0.0000E+00 0.0000E+00 0.0000E+00 0.0000E+00
 SWT_Bodem_dik_slib   0.0000E+00 0.0000E+00 0.0000E+00 0.0000E+00 0.0000E+00
 SWT_Bodem_dunne_slib 0.0000E+00 0.0000E+00 0.0000E+00 0.0000E+00 0.0000E+00
 SWT_Bodem_normaal    0.0000E+00 0.0000E+00 0.0000E+00 0.0000E+00 0.0000E+00
 LOADS ( OUT )                           
 p1                   0.0000E+00 0.0000E+00 0.0000E+00 0.0000E+00 0.0000E+00
 p2                   0.0000E+00 0.0000E+00 0.0000E+00 0.0000E+00 0.0000E+00
 l4                   0.0000E+00 0.0000E+00 0.0000E+00 0.0000E+00 0.0000E+00
 overstort            0.0000E+00 0.0000E+00 0.0000E+00 0.0000E+00 0.0000E+00
 SWT_Bodem_overstort_ 0.0000E+00 0.0000E+00 0.0000E+00 0.0000E+00 0.0000E+00
 SWT_Bodem_dik_slib   0.0000E+00 0.0000E+00 0.0000E+00 0.0000E+00 0.0000E+00
 SWT_Bodem_dunne_slib 0.0000E+00 0.0000E+00 0.0000E+00 0.0000E+00 0.0000E+00
 SWT_Bodem_normaal    0.0000E+00 0.0000E+00 0.0000E+00 0.0000E+00 0.0000E+00
 TRANSPORT ( IN )                        
 p1                   1.6644E+01 4.1341E-05 0.0000E+00 4.9144E+01 2.5298E+01
 p2                   8.1255E+01 2.3626E-05 1.3263E+02 7.7283E+01 1.4147E+02
 l4                   1.1830E+02 0.0000E+00 2.1856E+02 6.9221E+01 2.0101E+02
 overstort            0.0000E+00 8.2050E-06 4.2983E+00 0.0000E+00 0.0000E+00
 SWT_Bodem_overstort_ 0.0000E+00 8.2050E-06 4.2983E+00 0.0000E+00 0.0000E+00
 SWT_Bodem_dik_slib   6.6939E+00 3.2544E-05 1.7935E+00 1.3173E+01 3.8996E+00
 SWT_Bodem_dunne_slib 1.6644E+01 4.8123E-05 0.0000E+00 4.9144E+01 2.5298E+01
 SWT_Bodem_normaal    4.9866E+01 0.0000E+00 1.9492E+01 7.3691E+01 5.4703E+01
 TRANSPORT ( OUT )                       
 p1                   2.3278E+01 3.2544E-05 9.0975E+00 6.2690E+01 3.9559E+01
 p2                   9.0488E+01 3.1404E-05 1.6108E+02 7.4552E+01 1.6119E+02
 l4                   1.2810E+02 9.9998E-06 2.4981E+02 6.4940E+01 2.2192E+02
 overstort            1.8112E+00 0.0000E+00 0.0000E+00 1.3173E+01 3.8996E+00
 SWT_Bodem_overstort_ 1.8112E+00 0.0000E+00 0.0000E+00 1.3173E+01 3.8996E+00
 SWT_Bodem_dik_slib   1.6644E+01 8.2050E-06 4.2983E+00 4.9144E+01 2.5298E+01
 SWT_Bodem_dunne_slib 3.0335E+01 3.2544E-05 2.1286E+01 7.3691E+01 5.4703E+01
 SWT_Bodem_normaal    1.2810E+02 5.0403E-05 2.4981E+02 6.4940E+01 2.2192E+02
 
1
                                             Water quality calculation Sobek-WQ      
                                                                                     
                                                                                     
                                             T0: 1984.07.10 00:00:00  (scu=       1s)
  11.67% Completed


 DUMP OF INTERMEDIATE RESULTS IN SELECTED SEGMENTS
  TIME =   1D 18H  0M  0S .
 
 TOTAL MASS IN SYSTEM 1.0270E+04 4.0423E-07 1.8759E+04 4.1154E+03 1.8732E+04
 CHANGES BY PROCESSES-2.2497E+02-1.6249E-05-1.2138E+03-7.5769E+02 2.7522E+02
 CHANGES BY LOADS     0.0000E+00 0.0000E+00 0.0000E+00 0.0000E+00 0.0000E+00
 BOUNDARY INFLOWS     2.4413E+01 0.0000E+00 0.0000E+00 0.0000E+00 0.0000E+00
 BOUNDARY OUTFLOWS    1.2105E+02 5.3473E-08 2.2600E+02 5.1793E+01 2.1721E+02
                      NH4        CBOD5      CBOD5_2    OXY        CBOD5_3    
                                                                             
 CONCENTRATION                           
 p1                   2.4043E+00 8.1041E-11 4.3873E+00 9.7061E-01 4.3854E+00
 p2                   2.4047E+00 1.0238E-10 4.3952E+00 9.5956E-01 4.3863E+00
 l4                   2.4045E+00 1.0454E-10 4.3953E+00 9.5840E-01 4.3858E+00
 overstort            2.4053E+00 6.2345E-11 4.3821E+00 9.8329E-01 4.3877E+00
 SWT_Bodem_overstort_ 2.4053E+00 6.2345E-11 4.3821E+00 9.8329E-01 4.3877E+00
 SWT_Bodem_dik_slib   2.4041E+00 7.5732E-11 4.3850E+00 9.7368E-01 4.3850E+00
 SWT_Bodem_dunne_slib 2.4043E+00 8.3489E-11 4.3882E+00 9.6927E-01 4.3855E+00
 SWT_Bodem_normaal    2.4046E+00 9.9686E-11 4.3940E+00 9.6087E-01 4.3860E+00
 MASS                                    
 p1                   6.5464E+02 2.2066E-08 1.1946E+03 2.6428E+02 1.1941E+03
 p2                   9.1732E+02 3.9055E-08 1.6766E+03 3.6604E+02 1.6732E+03
 l4                   9.7213E+02 4.2264E-08 1.7770E+03 3.8747E+02 1.7732E+03
 overstort            1.7503E+02 4.5368E-09 3.1889E+02 7.1553E+01 3.1929E+02
 SWT_Bodem_overstort_ 1.7503E+02 4.5368E-09 3.1889E+02 7.1553E+01 3.1929E+02
 SWT_Bodem_dik_slib   9.7363E+02 3.0670E-08 1.7758E+03 3.9432E+02 1.7759E+03
 SWT_Bodem_dunne_slib 1.3520E+03 4.6948E-08 2.4676E+03 5.4505E+02 2.4661E+03
 SWT_Bodem_normaal    7.7690E+03 3.2208E-07 1.4197E+04 3.1045E+03 1.4171E+04
 PROCESSES                               
[...]
                                             T0: 1984.07.10 00:00:00  (scu=       1s)
  98.33% Completed


 DUMP OF INTERMEDIATE RESULTS IN SELECTED SEGMENTS
  TIME =  14D 18H  0M  0S .
 
 TOTAL MASS IN SYSTEM 6.9069E+02 2.4345E-41 7.6172E+00 1.7153E+04 1.9455E+04
 CHANGES BY PROCESSES-2.9056E+01-8.9896E-41-6.7086E-01 3.0003E+02 2.0032E+02
 CHANGES BY LOADS     0.0000E+00 0.0000E+00 0.0000E+00 0.0000E+00 0.0000E+00
 BOUNDARY INFLOWS     2.4413E+01 0.0000E+00 0.0000E+00 0.0000E+00 0.0000E+00
 BOUNDARY OUTFLOWS    7.9667E+00 2.5223E-43 9.1322E-02 1.9542E+02 2.2255E+02
                      NH4        CBOD5      CBOD5_2    OXY        CBOD5_3    
                                                                             
 CONCENTRATION                           
 p1                   1.6177E-01 5.6052E-45 1.7817E-03 4.0192E+00 4.5551E+00
 p2                   1.6170E-01 5.6052E-45 1.7849E-03 4.0151E+00 4.5561E+00
 l4                   1.6174E-01 5.6052E-45 1.7850E-03 4.0142E+00 4.5556E+00
 overstort            1.6158E-01 1.1210E-44 1.7796E-03 4.0268E+00 4.5577E+00
 SWT_Bodem_overstort_ 1.6158E-01 1.1210E-44 1.7796E-03 4.0268E+00 4.5577E+00
 SWT_Bodem_dik_slib   1.6180E-01 5.6052E-45 1.7808E-03 4.0202E+00 4.5548E+00
 SWT_Bodem_dunne_slib 1.6176E-01 5.6052E-45 1.7821E-03 4.0187E+00 4.5553E+00
 SWT_Bodem_normaal    1.6173E-01 5.6052E-45 1.7844E-03 4.0154E+00 4.5558E+00
 MASS                                    
 p1                   4.4041E+01 1.5260E-42 4.8505E-01 1.0942E+03 1.2401E+03
 p2                   6.1678E+01 2.1384E-42 6.8081E-01 1.5315E+03 1.7378E+03
 l4                   6.5384E+01 2.2659E-42 7.2157E-01 1.6227E+03 1.8416E+03
 overstort            1.1755E+01 8.1556E-43 1.2947E-01 2.9296E+02 3.3158E+02
 SWT_Bodem_overstort_ 1.1755E+01 8.1556E-43 1.2947E-01 2.9296E+02 3.3158E+02
 SWT_Bodem_dik_slib   6.5515E+01 2.2687E-42 7.2106E-01 1.6279E+03 1.8443E+03
 SWT_Bodem_dunne_slib 9.0950E+01 3.1515E-42 1.0020E+00 2.2595E+03 2.5612E+03
 SWT_Bodem_normaal    5.2247E+02 1.8109E-41 5.7647E+00 1.2972E+04 1.4718E+04
 PROCESSES                               
 p1                  -1.8531E+00 0.0000E+00-4.5352E-02 2.3505E+01 1.2770E+01
 p2                  -2.5944E+00 0.0000E+00-5.7589E-02 2.2850E+01 1.7892E+01
 l4                  -2.7501E+00 0.0000E+00-6.0628E-02 2.3550E+01 1.8965E+01
 overstort           -4.9496E-01 0.0000E+00-1.4718E-02 1.0616E+01 3.4094E+00
 SWT_Bodem_overstort_-4.9496E-01 0.0000E+00-1.4718E-02 1.0616E+01 3.4094E+00
 SWT_Bodem_dik_slib  -2.7569E+00 0.0000E+00-7.1689E-02 4.2097E+01 1.8994E+01
 SWT_Bodem_dunne_slib-3.8268E+00 0.0000E+00-9.2719E-02 4.6940E+01 2.6373E+01
 SWT_Bodem_normaal   -2.1978E+01 0.0000E+00-4.9174E-01 2.0038E+02 1.5154E+02
 LOADS ( IN )                            
 p1                   0.0000E+00 0.0000E+00 0.0000E+00 0.0000E+00 0.0000E+00
 p2                   0.0000E+00 0.0000E+00 0.0000E+00 0.0000E+00 0.0000E+00
 l4                   0.0000E+00 0.0000E+00 0.0000E+00 0.0000E+00 0.0000E+00
 overstort            0.0000E+00 0.0000E+00 0.0000E+00 0.0000E+00 0.0000E+00
 SWT_Bodem_overstort_ 0.0000E+00 0.0000E+00 0.0000E+00 0.0000E+00 0.0000E+00
 SWT_Bodem_dik_slib   0.0000E+00 0.0000E+00 0.0000E+00 0.0000E+00 0.0000E+00
 SWT_Bodem_dunne_slib 0.0000E+00 0.0000E+00 0.0000E+00 0.0000E+00 0.0000E+00
 SWT_Bodem_normaal    0.0000E+00 0.0000E+00 0.0000E+00 0.0000E+00 0.0000E+00
 LOADS ( OUT )                           
 p1                   0.0000E+00 0.0000E+00 0.0000E+00 0.0000E+00 0.0000E+00
 p2                   0.0000E+00 0.0000E+00 0.0000E+00 0.0000E+00 0.0000E+00
 l4                   0.0000E+00 0.0000E+00 0.0000E+00 0.0000E+00 0.0000E+00
 overstort            0.0000E+00 0.0000E+00 0.0000E+00 0.0000E+00 0.0000E+00
 SWT_Bodem_overstort_ 0.0000E+00 0.0000E+00 0.0000E+00 0.0000E+00 0.0000E+00
 SWT_Bodem_dik_slib   0.0000E+00 0.0000E+00 0.0000E+00 0.0000E+00 0.0000E+00
 SWT_Bodem_dunne_slib 0.0000E+00 0.0000E+00 0.0000E+00 0.0000E+00 0.0000E+00
 SWT_Bodem_normaal    0.0000E+00 0.0000E+00 0.0000E+00 0.0000E+00 0.0000E+00
 TRANSPORT ( IN )                        
 p1                   3.0411E+00 5.0447E-44 0.0000E+00 4.1040E+01 2.4889E+01
 p2                   4.8022E+00 1.5134E-43 4.7966E-02 1.4106E+02 1.4152E+02
 l4                   9.5230E+00 2.5223E-43 7.9747E-02 1.8177E+02 2.0147E+02
 overstort            2.8002E-01 0.0000E+00 1.7624E-03 0.0000E+00 0.0000E+00
 SWT_Bodem_overstort_ 2.8002E-01 0.0000E+00 1.7624E-03 0.0000E+00 0.0000E+00
 SWT_Bodem_dik_slib   4.8827E+00 9.1309E-42 1.3030E-03 8.8406E+00 3.7889E+00
 SWT_Bodem_dunne_slib 3.0411E+00 5.0447E-44 0.0000E+00 4.1040E+01 2.4889E+01
 SWT_Bodem_normaal    2.0405E+01 5.0447E-44 6.2391E-03 7.4224E+01 5.4191E+01
 TRANSPORT ( OUT )                       
 p1                   1.9917E+00 5.0447E-44 3.1820E-03 5.7884E+01 3.9075E+01
 p2                   3.3334E+00 1.5134E-43 5.8489E-02 1.5454E+02 1.6137E+02
 l4                   7.9667E+00 2.5223E-43 9.1322E-02 1.9542E+02 2.2255E+02
 overstort            0.0000E+00 9.1309E-42 0.0000E+00 8.8406E+00 3.7889E+00
 SWT_Bodem_overstort_ 0.0000E+00 9.1309E-42 0.0000E+00 8.8406E+00 3.7889E+00
 SWT_Bodem_dik_slib   3.3211E+00 5.0447E-44 1.7624E-03 4.1040E+01 2.4889E+01
 SWT_Bodem_dunne_slib 8.7443E-01 5.0447E-44 7.5421E-03 7.4224E+01 5.4191E+01
 SWT_Bodem_normaal    7.9667E+00 2.5223E-43 9.1322E-02 1.9542E+02 2.2255E+02
 
  99.17% Completed


 DUMP OF INTERMEDIATE RESULTS IN SELECTED SEGMENTS
  TIME =  14D 21H  0M  0S .
 
 TOTAL MASS IN SYSTEM 6.7868E+02 2.4345E-41 6.9238E+00 1.7254E+04 1.9433E+04
 CHANGES BY PROCESSES-2.8600E+01-8.9896E-41-6.1034E-01 2.9856E+02 2.0031E+02
 CHANGES BY LOADS     0.0000E+00 0.0000E+00 0.0000E+00 0.0000E+00 0.0000E+00
 BOUNDARY INFLOWS     2.4413E+01 0.0000E+00 0.0000E+00 0.0000E+00 0.0000E+00
 BOUNDARY OUTFLOWS    7.8260E+00 2.5223E-43 8.3012E-02 1.9660E+02 2.2230E+02
                      NH4        CBOD5      CBOD5_2    OXY        CBOD5_3    
                                                                             
 CONCENTRATION                           
 p1                   1.5896E-01 5.6052E-45 1.6195E-03 4.0430E+00 4.5500E+00
 p2                   1.5889E-01 5.6052E-45 1.6224E-03 4.0390E+00 4.5509E+00
 l4                   1.5893E-01 5.6052E-45 1.6225E-03 4.0381E+00 4.5504E+00
 overstort            1.5877E-01 1.1210E-44 1.6176E-03 4.0506E+00 4.5525E+00
 SWT_Bodem_overstort_ 1.5877E-01 1.1210E-44 1.6176E-03 4.0506E+00 4.5525E+00
 SWT_Bodem_dik_slib   1.5899E-01 5.6052E-45 1.6187E-03 4.0440E+00 4.5496E+00
 SWT_Bodem_dunne_slib 1.5895E-01 5.6052E-45 1.6199E-03 4.0426E+00 4.5501E+00
 SWT_Bodem_normaal    1.5891E-01 5.6052E-45 1.6220E-03 4.0393E+00 4.5506E+00
 MASS                                    
 p1                   4.3275E+01 1.5260E-42 4.4090E-01 1.1007E+03 1.2387E+03
 p2                   6.0605E+01 2.1384E-42 6.1883E-01 1.5406E+03 1.7358E+03
 l4                   6.4247E+01 2.2659E-42 6.5589E-01 1.6324E+03 1.8395E+03
 overstort            1.1551E+01 8.1556E-43 1.1768E-01 2.9469E+02 3.3121E+02
 SWT_Bodem_overstort_ 1.1551E+01 8.1556E-43 1.1768E-01 2.9469E+02 3.3121E+02
 SWT_Bodem_dik_slib   6.4376E+01 2.2687E-42 6.5542E-01 1.6375E+03 1.8422E+03
 SWT_Bodem_dunne_slib 8.9368E+01 3.1515E-42 9.1077E-01 2.2729E+03 2.5583E+03
 SWT_Bodem_normaal    5.1338E+02 1.8109E-41 5.2400E+00 1.3049E+04 1.4701E+04
 PROCESSES                               
 p1                  -1.8240E+00 0.0000E+00-4.1259E-02 2.3362E+01 1.2769E+01
 p2                  -2.5537E+00 0.0000E+00-5.2396E-02 2.2762E+01 1.7891E+01
 l4                  -2.7069E+00 0.0000E+00-5.5161E-02 2.3465E+01 1.8964E+01
 overstort           -4.8717E-01 0.0000E+00-1.3387E-02 1.0529E+01 3.4093E+00
 SWT_Bodem_overstort_-4.8717E-01 0.0000E+00-1.3387E-02 1.0529E+01 3.4093E+00
 SWT_Bodem_dik_slib  -2.7137E+00 0.0000E+00-6.5215E-02 4.1805E+01 1.8993E+01
 SWT_Bodem_dunne_slib-3.7667E+00 0.0000E+00-8.4351E-02 4.6664E+01 2.6372E+01
 SWT_Bodem_normaal   -2.1632E+01 0.0000E+00-4.4739E-01 1.9956E+02 1.5153E+02
 LOADS ( IN )                            
 p1                   0.0000E+00 0.0000E+00 0.0000E+00 0.0000E+00 0.0000E+00
 p2                   0.0000E+00 0.0000E+00 0.0000E+00 0.0000E+00 0.0000E+00
 l4                   0.0000E+00 0.0000E+00 0.0000E+00 0.0000E+00 0.0000E+00
 overstort            0.0000E+00 0.0000E+00 0.0000E+00 0.0000E+00 0.0000E+00
 SWT_Bodem_overstort_ 0.0000E+00 0.0000E+00 0.0000E+00 0.0000E+00 0.0000E+00
 SWT_Bodem_dik_slib   0.0000E+00 0.0000E+00 0.0000E+00 0.0000E+00 0.0000E+00
 SWT_Bodem_dunne_slib 0.0000E+00 0.0000E+00 0.0000E+00 0.0000E+00 0.0000E+00
 SWT_Bodem_normaal    0.0000E+00 0.0000E+00 0.0000E+00 0.0000E+00 0.0000E+00
 LOADS ( OUT )                           
 p1                   0.0000E+00 0.0000E+00 0.0000E+00 0.0000E+00 0.0000E+00
 p2                   0.0000E+00 0.0000E+00 0.0000E+00 0.0000E+00 0.0000E+00
 l4                   0.0000E+00 0.0000E+00 0.0000E+00 0.0000E+00 0.0000E+00
 overstort            0.0000E+00 0.0000E+00 0.0000E+00 0.0000E+00 0.0000E+00
 SWT_Bodem_overstort_ 0.0000E+00 0.0000E+00 0.0000E+00 0.0000E+00 0.0000E+00
 SWT_Bodem_dik_slib   0.0000E+00 0.0000E+00 0.0000E+00 0.0000E+00 0.0000E+00
 SWT_Bodem_dunne_slib 0.0000E+00 0.0000E+00 0.0000E+00 0.0000E+00 0.0000E+00
 SWT_Bodem_normaal    0.0000E+00 0.0000E+00 0.0000E+00 0.0000E+00 0.0000E+00
 TRANSPORT ( IN )                        
 p1                   3.0253E+00 5.0447E-44 0.0000E+00 4.0957E+01 2.4859E+01
 p2                   4.7129E+00 1.5134E-43 4.3600E-02 1.4162E+02 1.4136E+02
 l4                   9.3957E+00 2.5223E-43 7.2491E-02 1.8279E+02 2.0125E+02
 overstort            2.8240E-01 0.0000E+00 1.6019E-03 0.0000E+00 0.0000E+00
 SWT_Bodem_overstort_ 2.8240E-01 0.0000E+00 1.6019E-03 0.0000E+00 0.0000E+00
 SWT_Bodem_dik_slib   4.8827E+00 9.1309E-42 1.1838E-03 8.7988E+00 3.7849E+00
 SWT_Bodem_dunne_slib 3.0253E+00 5.0447E-44 0.0000E+00 4.0957E+01 2.4859E+01
 SWT_Bodem_normaal    2.0370E+01 5.0447E-44 5.6708E-03 7.4213E+01 5.4127E+01
 TRANSPORT ( OUT )                       
 p1                   1.9670E+00 5.0447E-44 2.8925E-03 5.7828E+01 3.9027E+01
 p2                   3.2314E+00 1.5134E-43 5.3164E-02 1.5525E+02 1.6119E+02
 l4                   7.8260E+00 2.5223E-43 8.3012E-02 1.9660E+02 2.2230E+02
 overstort            0.0000E+00 9.1309E-42 0.0000E+00 8.7988E+00 3.7849E+00
 SWT_Bodem_overstort_ 0.0000E+00 9.1309E-42 0.0000E+00 8.7988E+00 3.7849E+00
 SWT_Bodem_dik_slib   3.3077E+00 5.0447E-44 1.6019E-03 4.0957E+01 2.4859E+01
 SWT_Bodem_dunne_slib 8.4013E-01 5.0447E-44 6.8546E-03 7.4213E+01 5.4127E+01
 SWT_Bodem_normaal    7.8260E+00 2.5223E-43 8.3012E-02 1.9660E+02 2.2230E+02
 

 REWIND ON       UNIT:  23, READING: ..\WORK\Area.dat
 AT SIMULATION TIME:   15D  0H  0M  0S !
 TIME IN FILE:         15D  0H  0M  0S !

 REWIND ON       UNIT:  24, READING: ..\WORK\Flow.dat
 AT SIMULATION TIME:   15D  0H  0M  0S !
 TIME IN FILE:         15D  0H  0M  0S !
1
                                             Water quality calculation Sobek-WQ      
                                                                                     
                                                                                     
                                             T0: 1984.07.10 00:00:00  (scu=       1s)
 100.00% Completed


 DUMP OF INTERMEDIATE RESULTS IN SELECTED SEGMENTS
  TIME =  15D  0H  0M  0S .
 
 TOTAL MASS IN SYSTEM 6.6723E+02 2.4345E-41 6.2931E+00 1.7354E+04 1.9411E+04
 CHANGES BY PROCESSES-2.8164E+01-8.9896E-41-5.5523E-01 2.9709E+02 2.0030E+02
 CHANGES BY LOADS     0.0000E+00 0.0000E+00 0.0000E+00 0.0000E+00 0.0000E+00
 BOUNDARY INFLOWS     2.4413E+01 0.0000E+00 0.0000E+00 0.0000E+00 0.0000E+00
 BOUNDARY OUTFLOWS    7.6920E+00 2.5223E-43 7.5453E-02 1.9775E+02 2.2205E+02
                      NH4        CBOD5      CBOD5_2    OXY        CBOD5_3    
                                                                             
 CONCENTRATION                           
 p1                   1.5628E-01 5.6052E-45 1.4720E-03 4.0662E+00 4.5449E+00
 p2                   1.5621E-01 5.6052E-45 1.4746E-03 4.0623E+00 4.5458E+00
 l4                   1.5625E-01 5.6052E-45 1.4747E-03 4.0613E+00 4.5453E+00
 overstort            1.5608E-01 1.1210E-44 1.4703E-03 4.0738E+00 4.5474E+00
 SWT_Bodem_overstort_ 1.5608E-01 1.1210E-44 1.4703E-03 4.0738E+00 4.5474E+00
 SWT_Bodem_dik_slib   1.5631E-01 5.6052E-45 1.4712E-03 4.0672E+00 4.5445E+00
 SWT_Bodem_dunne_slib 1.5627E-01 5.6052E-45 1.4723E-03 4.0658E+00 4.5450E+00
 SWT_Bodem_normaal    1.5623E-01 5.6052E-45 1.4742E-03 4.0626E+00 4.5455E+00
 MASS                                    
 p1                   4.2546E+01 1.5260E-42 4.0074E-01 1.1070E+03 1.2373E+03
 p2                   5.9583E+01 2.1384E-42 5.6246E-01 1.5495E+03 1.7339E+03
 l4                   6.3163E+01 2.2659E-42 5.9614E-01 1.6418E+03 1.8374E+03
 overstort            1.1355E+01 8.1556E-43 1.0696E-01 2.9638E+02 3.3084E+02
 SWT_Bodem_overstort_ 1.1355E+01 8.1556E-43 1.0696E-01 2.9638E+02 3.3084E+02
 SWT_Bodem_dik_slib   6.3291E+01 2.2687E-42 5.9572E-01 1.6469E+03 1.8401E+03
 SWT_Bodem_dunne_slib 8.7861E+01 3.1515E-42 8.2781E-01 2.2860E+03 2.5554E+03
 SWT_Bodem_normaal    5.0472E+02 1.8109E-41 4.7626E+00 1.3124E+04 1.4685E+04
 PROCESSES                               
 p1                  -1.7963E+00 0.0000E+00-3.7531E-02 2.3222E+01 1.2769E+01
 p2                  -2.5147E+00 0.0000E+00-4.7666E-02 2.2675E+01 1.7890E+01
 l4                  -2.6657E+00 0.0000E+00-5.0182E-02 2.3379E+01 1.8963E+01
 overstort           -4.7973E-01 0.0000E+00-1.2176E-02 1.0444E+01 3.4092E+00
 SWT_Bodem_overstort_-4.7973E-01 0.0000E+00-1.2176E-02 1.0444E+01 3.4092E+00
 SWT_Bodem_dik_slib  -2.6723E+00 0.0000E+00-5.9320E-02 4.1518E+01 1.8992E+01
 SWT_Bodem_dunne_slib-3.7093E+00 0.0000E+00-7.6730E-02 4.6390E+01 2.6371E+01
 SWT_Bodem_normaal   -2.1303E+01 0.0000E+00-4.0700E-01 1.9874E+02 1.5153E+02
 LOADS ( IN )                            
 p1                   0.0000E+00 0.0000E+00 0.0000E+00 0.0000E+00 0.0000E+00
 p2                   0.0000E+00 0.0000E+00 0.0000E+00 0.0000E+00 0.0000E+00
 l4                   0.0000E+00 0.0000E+00 0.0000E+00 0.0000E+00 0.0000E+00
 overstort            0.0000E+00 0.0000E+00 0.0000E+00 0.0000E+00 0.0000E+00
 SWT_Bodem_overstort_ 0.0000E+00 0.0000E+00 0.0000E+00 0.0000E+00 0.0000E+00
 SWT_Bodem_dik_slib   0.0000E+00 0.0000E+00 0.0000E+00 0.0000E+00 0.0000E+00
 SWT_Bodem_dunne_slib 0.0000E+00 0.0000E+00 0.0000E+00 0.0000E+00 0.0000E+00
 SWT_Bodem_normaal    0.0000E+00 0.0000E+00 0.0000E+00 0.0000E+00 0.0000E+00
 LOADS ( OUT )                           
 p1                   0.0000E+00 0.0000E+00 0.0000E+00 0.0000E+00 0.0000E+00
 p2                   0.0000E+00 0.0000E+00 0.0000E+00 0.0000E+00 0.0000E+00
 l4                   0.0000E+00 0.0000E+00 0.0000E+00 0.0000E+00 0.0000E+00
 overstort            0.0000E+00 0.0000E+00 0.0000E+00 0.0000E+00 0.0000E+00
 SWT_Bodem_overstort_ 0.0000E+00 0.0000E+00 0.0000E+00 0.0000E+00 0.0000E+00
 SWT_Bodem_dik_slib   0.0000E+00 0.0000E+00 0.0000E+00 0.0000E+00 0.0000E+00
 SWT_Bodem_dunne_slib 0.0000E+00 0.0000E+00 0.0000E+00 0.0000E+00 0.0000E+00
 SWT_Bodem_normaal    0.0000E+00 0.0000E+00 0.0000E+00 0.0000E+00 0.0000E+00
 TRANSPORT ( IN )                        
 p1                   3.0104E+00 5.0447E-44 0.0000E+00 4.0875E+01 2.4834E+01
 p2                   4.6277E+00 1.5134E-43 3.9631E-02 1.4217E+02 1.4120E+02
 l4                   9.2742E+00 2.5223E-43 6.5890E-02 1.8378E+02 2.0102E+02
 overstort            2.8467E-01 0.0000E+00 1.4560E-03 0.0000E+00 0.0000E+00
 SWT_Bodem_overstort_ 2.8467E-01 0.0000E+00 1.4560E-03 0.0000E+00 0.0000E+00
 SWT_Bodem_dik_slib   4.8827E+00 9.1309E-42 1.0764E-03 8.7584E+00 3.7803E+00
 SWT_Bodem_dunne_slib 3.0104E+00 5.0447E-44 0.0000E+00 4.0875E+01 2.4834E+01
 SWT_Bodem_normaal    2.0338E+01 5.0447E-44 5.1543E-03 7.4204E+01 5.4066E+01
 TRANSPORT ( OUT )                       
 p1                   1.9436E+00 5.0447E-44 2.6299E-03 5.7773E+01 3.8987E+01
 p2                   3.1343E+00 1.5134E-43 4.8325E-02 1.5595E+02 1.6101E+02
 l4                   7.6920E+00 2.5223E-43 7.5453E-02 1.9775E+02 2.2205E+02
 overstort            0.0000E+00 9.1309E-42 0.0000E+00 8.7584E+00 3.7803E+00
 SWT_Bodem_overstort_ 0.0000E+00 9.1309E-42 0.0000E+00 8.7584E+00 3.7803E+00
 SWT_Bodem_dik_slib   3.2951E+00 5.0447E-44 1.4560E-03 4.0875E+01 2.4834E+01
 SWT_Bodem_dunne_slib 8.0761E-01 5.0447E-44 6.2307E-03 7.4204E+01 5.4066E+01
 SWT_Bodem_normaal    7.6920E+00 2.5223E-43 7.5453E-02 1.9775E+02 2.2205E+02
 
Performance timers:
|------------------------------------------------------------------------|
|Timer name                     |   cpu time        |    wall clock      |
|                               |-------------------|--------------------|
|                     | #times  |   sec     |  %    |    sec     |  %    |
|------------------------------------------------------------------------|
|Total                |       1 |       2.6 | 100.0 |        2.6 | 100.0 | 
|------------------------------------------------------------------------|
| *** In init, simulation:                                               |
|------------------------------------------------------------------------|
|Initialization       |       1 |       0.0 |   0.0 |        0.0 |   0.0 | 
|Integrat.routine 10  |       1 |       2.6 | 100.0 |        2.6 | 100.0 | 
|Total:               |         |       2.6 | 100.0 |        2.6 | 100.0 | 
|------------------------------------------------------------------------|
| *** In integration routine:                                            |
|------------------------------------------------------------------------|
|Proces library       |    4321 |       1.2 |  47.6 |        1.3 |  48.2 | 
|Total Integration:   |         |       1.2 |  47.6 |        1.3 |  48.2 | 
|------------------------------------------------------------------------|
| *** In processes library:                                              |
|------------------------------------------------------------------------|
|Grid manipulations   |   69136 |       0.1 |   7.7 |        0.1 |   7.6 | 
|Flux manipulations   |   47531 |       0.3 |  25.6 |        0.3 |  23.6 | 
|Dispersion calc.     |    8642 |       0.0 |   1.3 |        0.0 |   1.3 | 
|Communications       |    4321 |       0.0 |   0.0 |        0.0 |   0.0 | 
|Proces   3: "ATMDEP" |    4321 |       0.0 |   1.3 |        0.0 |   1.3 | 
|Proces  15: "CALTAU" |    4321 |       0.0 |   0.0 |        0.0 |   0.0 | 
|Proces  24: "DDEPTH" |    4321 |       0.0 |   0.0 |        0.0 |   1.3 | 
|Proces  51: "NITRIF" |    4321 |       0.0 |   0.0 |        0.0 |   0.0 | 
|Proces  58: "POSOXY" |    4321 |       0.0 |   1.3 |        0.0 |   1.2 | 
|Proces  69: "REAR"   |    4321 |       0.0 |   0.0 |        0.0 |   0.0 | 
|Proces  83: "SATOXY" |    4321 |       0.0 |   0.0 |        0.0 |   0.0 | 
|Proces  87: "SEDCAR" |   12963 |       0.0 |   3.8 |        0.0 |   3.7 | 
|Proces  94: "SEDOX"  |    4321 |       0.0 |   2.6 |        0.0 |   1.3 | 
|Proces 111: "TOTDEP" |    4321 |       0.0 |   0.0 |        0.0 |   0.0 | 
|Proces 161: "PTEWOR" |    4321 |       0.0 |   0.0 |        0.0 |   0.0 | 
|Proces 177: "DECBOD" |    4321 |       0.0 |   1.3 |        0.0 |   1.3 | 
|Proces 179: "HDISP"  |    4321 |       0.0 |   0.0 |        0.0 |   0.0 | 
|Total Processes:     |         |       0.5 |  44.9 |        0.5 |  42.5 | 
|------------------------------------------------------------------------|
| *** In CouPLib communications library:                                 |
|------------------------------------------------------------------------|
|Index-sets           |       9 |       0.0 |   0.0 |        0.0 |   0.0 | 
|Interfaces           |       7 |       0.0 |   0.0 |        0.0 |   0.0 | 
|Total Communication: |         |       0.0 |   0.0 |        0.0 |   0.0 | 
|------------------------------------------------------------------------|
 
 Simulation ended normal
 Execution stop : 2010/04/13 12:03:43 
