  Using options from ini file : delwaq.ini
 Delft3D-WAQ version  4.5204 16-03-2009
 Only to be used by SOBEK licensee                          
 (c) Deltares
 Execution start: 2011/09/26 10:10:20 
 total real    array space:       5664
 total integer array space:       4399
 total CHARACTER*20  space:        320
1                    Water quality calculation Sobek-WQ      
                                                             

                                                             
                     T0: 2010.01.01 00:00:00  (scu=       1s)

                     Initialisation from system file completed.

 No process decomposition active
 partit: noseg,nolay=          21           1 , nseghr=          21
 partit: npart=  1, assigning all segments to part "npart", none to other parts
 
 CONSTANT ON UNIT:        22, READING: delwaq-dispersi.wrk                                                                                                                                                                                                                                            
 SIMULATION TIME :  0D  0H  0M  0S ! 
 TIME IN FILE    :  0D  0H  0M  0S ! 
 CONSTANT ON UNIT:        26, READING: ..\WORK\Length.dat                                                                                                                                                                                                                                             
 SIMULATION TIME :  0D  0H  0M  0S ! 
 TIME IN FILE    :  0D  0H  0M  0S ! 
  Closure error correction disabled
 
 Initialising numerical options for method 15...18
 
 Preconditioner switch not found, using default
 switch = 3, corrections based on lower and upper 
 
 Maximum number of iterations not found, using default
 Maximum number of iterations set to :   100
 
 Relative tolerance not found, using default
 Relative tolerance set to :0.100E-06
 
 Scaling switch not found, using default
 switch = 1, scaling is switched on
 
 Iteration report switch found in input
 switch = 0, iteration report is switched off
 
 
 Extra functionality DLWQTR
 End extra functionality DLWQTR
1
                                             Water quality calculation Sobek-WQ      
                                                                                     
                                                                                     
                                             T0: 2010.01.01 00:00:00  (scu=       1s)
   0.00% Completed


 DUMP OF INTERMEDIATE RESULTS IN SELECTED SEGMENTS
  TIME =   0D  0H  0M  0S .
 
 TOTAL MASS IN SYSTEM 5.6977E+03 0.0000E+00 5.6977E+03 3.1337E+04 5.6977E+03 0.0000E+00
 CHANGES BY PROCESSES 0.0000E+00 0.0000E+00 0.0000E+00 0.0000E+00 0.0000E+00 0.0000E+00
 CHANGES BY LOADS     0.0000E+00 0.0000E+00 0.0000E+00 0.0000E+00 0.0000E+00 0.0000E+00
 BOUNDARY INFLOWS     0.0000E+00 0.0000E+00 0.0000E+00 0.0000E+00 0.0000E+00 0.0000E+00
 BOUNDARY OUTFLOWS    0.0000E+00 0.0000E+00 0.0000E+00 0.0000E+00 0.0000E+00 0.0000E+00
                      NH4        CBOD5      CBOD5_2    OXY        Continuity SOD        
                                                                                        
 CONCENTRATION                           
 Start                1.0000E+00 0.0000E+00 1.0000E+00 5.5000E+00 1.0000E+00 0.0000E+00
 Upstream pipe        1.0000E+00 0.0000E+00 1.0000E+00 5.5000E+00 1.0000E+00 0.0000E+00
 Near pipe            1.0000E+00 0.0000E+00 1.0000E+00 5.5000E+00 1.0000E+00 0.0000E+00
 Far field            1.0000E+00 0.0000E+00 1.0000E+00 5.5000E+00 1.0000E+00 0.0000E+00
 SWT_Normal           1.0000E+00 0.0000E+00 1.0000E+00 5.5000E+00 1.0000E+00 0.0000E+00
 MASS                                    
 Start                2.9988E+02 0.0000E+00 2.9988E+02 1.6493E+03 2.9988E+02 0.0000E+00
 Upstream pipe        2.9988E+02 0.0000E+00 2.9988E+02 1.6493E+03 2.9988E+02 0.0000E+00
 Near pipe            2.9988E+02 0.0000E+00 2.9988E+02 1.6493E+03 2.9988E+02 0.0000E+00
 Far field            2.9988E+02 0.0000E+00 2.9988E+02 1.6493E+03 2.9988E+02 0.0000E+00
 SWT_Normal           5.6977E+03 0.0000E+00 5.6977E+03 3.1337E+04 5.6977E+03 0.0000E+00
 PROCESSES                               
 Start                0.0000E+00 0.0000E+00 0.0000E+00 0.0000E+00 0.0000E+00 0.0000E+00
 Upstream pipe        0.0000E+00 0.0000E+00 0.0000E+00 0.0000E+00 0.0000E+00 0.0000E+00
 Near pipe            0.0000E+00 0.0000E+00 0.0000E+00 0.0000E+00 0.0000E+00 0.0000E+00
 Far field            0.0000E+00 0.0000E+00 0.0000E+00 0.0000E+00 0.0000E+00 0.0000E+00
 SWT_Normal           0.0000E+00 0.0000E+00 0.0000E+00 0.0000E+00 0.0000E+00 0.0000E+00
 LOADS ( IN )                            
 Start                0.0000E+00 0.0000E+00 0.0000E+00 0.0000E+00 0.0000E+00 0.0000E+00
 Upstream pipe        0.0000E+00 0.0000E+00 0.0000E+00 0.0000E+00 0.0000E+00 0.0000E+00
 Near pipe            0.0000E+00 0.0000E+00 0.0000E+00 0.0000E+00 0.0000E+00 0.0000E+00
 Far field            0.0000E+00 0.0000E+00 0.0000E+00 0.0000E+00 0.0000E+00 0.0000E+00
 SWT_Normal           0.0000E+00 0.0000E+00 0.0000E+00 0.0000E+00 0.0000E+00 0.0000E+00
 LOADS ( OUT )                           
 Start                0.0000E+00 0.0000E+00 0.0000E+00 0.0000E+00 0.0000E+00 0.0000E+00
 Upstream pipe        0.0000E+00 0.0000E+00 0.0000E+00 0.0000E+00 0.0000E+00 0.0000E+00
 Near pipe            0.0000E+00 0.0000E+00 0.0000E+00 0.0000E+00 0.0000E+00 0.0000E+00
 Far field            0.0000E+00 0.0000E+00 0.0000E+00 0.0000E+00 0.0000E+00 0.0000E+00
 SWT_Normal           0.0000E+00 0.0000E+00 0.0000E+00 0.0000E+00 0.0000E+00 0.0000E+00
 TRANSPORT ( IN )                        
 Start                0.0000E+00 0.0000E+00 0.0000E+00 0.0000E+00 0.0000E+00 0.0000E+00
 Upstream pipe        0.0000E+00 0.0000E+00 0.0000E+00 0.0000E+00 0.0000E+00 0.0000E+00
 Near pipe            0.0000E+00 0.0000E+00 0.0000E+00 0.0000E+00 0.0000E+00 0.0000E+00
 Far field            0.0000E+00 0.0000E+00 0.0000E+00 0.0000E+00 0.0000E+00 0.0000E+00
 SWT_Normal           0.0000E+00 0.0000E+00 0.0000E+00 0.0000E+00 0.0000E+00 0.0000E+00
 TRANSPORT ( OUT )                       
 Start                0.0000E+00 0.0000E+00 0.0000E+00 0.0000E+00 0.0000E+00 0.0000E+00
 Upstream pipe        0.0000E+00 0.0000E+00 0.0000E+00 0.0000E+00 0.0000E+00 0.0000E+00
 Near pipe            0.0000E+00 0.0000E+00 0.0000E+00 0.0000E+00 0.0000E+00 0.0000E+00
 Far field            0.0000E+00 0.0000E+00 0.0000E+00 0.0000E+00 0.0000E+00 0.0000E+00
 SWT_Normal           0.0000E+00 0.0000E+00 0.0000E+00 0.0000E+00 0.0000E+00 0.0000E+00
 
   0.69% Completed


 DUMP OF INTERMEDIATE RESULTS IN SELECTED SEGMENTS
  TIME =   0D  1H  0M  0S .
 
 TOTAL MASS IN SYSTEM 5.7100E+03 0.0000E+00 5.6706E+03 3.2068E+04 5.7337E+03 0.0000E+00
 CHANGES BY PROCESSES-2.3762E+01 0.0000E+00-6.3135E+01 5.3264E+02 0.0000E+00 0.0000E+00
 CHANGES BY LOADS     0.0000E+00 0.0000E+00 0.0000E+00 0.0000E+00 0.0000E+00 0.0000E+00
 BOUNDARY INFLOWS     3.6000E+01 0.0000E+00 3.6000E+01 1.9800E+02 3.6000E+01 0.0000E+00
 BOUNDARY OUTFLOWS    0.0000E+00 0.0000E+00 0.0000E+00 0.0000E+00 0.0000E+00 0.0000E+00
                      NH4        CBOD5      CBOD5_2    OXY        Continuity SOD        
                                                                                        
 CONCENTRATION                           
 Start                9.9587E-01 0.0000E+00 9.8902E-01 5.5926E+00 1.0000E+00 0.0000E+00
 Upstream pipe        9.9584E-01 0.0000E+00 9.8895E-01 5.5931E+00 1.0000E+00 0.0000E+00
 Near pipe            9.9584E-01 0.0000E+00 9.8895E-01 5.5931E+00 1.0000E+00 0.0000E+00
 Far field            9.9584E-01 0.0000E+00 9.8894E-01 5.5934E+00 1.0000E+00 0.0000E+00
 SWT_Normal           9.9586E-01 0.0000E+00 9.8899E-01 5.5929E+00 1.0000E+00 0.0000E+00
 MASS                                    
 Start                3.0164E+02 0.0000E+00 2.9956E+02 1.6939E+03 3.0289E+02 0.0000E+00
 Upstream pipe        3.0163E+02 0.0000E+00 2.9954E+02 1.6941E+03 3.0289E+02 0.0000E+00
 Near pipe            3.0163E+02 0.0000E+00 2.9954E+02 1.6941E+03 3.0289E+02 0.0000E+00
 Far field            2.9863E+02 0.0000E+00 2.9656E+02 1.6773E+03 2.9988E+02 0.0000E+00
 SWT_Normal           5.7100E+03 0.0000E+00 5.6706E+03 3.2068E+04 5.7337E+03 0.0000E+00
 PROCESSES                               
 Start               -1.2526E+00 0.0000E+00-3.3265E+00 2.8050E+01 0.0000E+00 0.0000E+00
 Upstream pipe       -1.2526E+00 0.0000E+00-3.3264E+00 2.8047E+01 0.0000E+00 0.0000E+00
 Near pipe           -1.2525E+00 0.0000E+00-3.3263E+00 2.8047E+01 0.0000E+00 0.0000E+00
 Far field           -1.2473E+00 0.0000E+00-3.3170E+00 2.8005E+01 0.0000E+00 0.0000E+00
 SWT_Normal          -2.3762E+01 0.0000E+00-6.3135E+01 5.3264E+02 0.0000E+00 0.0000E+00
 LOADS ( IN )                            
 Start                0.0000E+00 0.0000E+00 0.0000E+00 0.0000E+00 0.0000E+00 0.0000E+00
 Upstream pipe        0.0000E+00 0.0000E+00 0.0000E+00 0.0000E+00 0.0000E+00 0.0000E+00
 Near pipe            0.0000E+00 0.0000E+00 0.0000E+00 0.0000E+00 0.0000E+00 0.0000E+00
 Far field            0.0000E+00 0.0000E+00 0.0000E+00 0.0000E+00 0.0000E+00 0.0000E+00
 SWT_Normal           0.0000E+00 0.0000E+00 0.0000E+00 0.0000E+00 0.0000E+00 0.0000E+00
 LOADS ( OUT )                           
 Start                0.0000E+00 0.0000E+00 0.0000E+00 0.0000E+00 0.0000E+00 0.0000E+00
 Upstream pipe        0.0000E+00 0.0000E+00 0.0000E+00 0.0000E+00 0.0000E+00 0.0000E+00
 Near pipe            0.0000E+00 0.0000E+00 0.0000E+00 0.0000E+00 0.0000E+00 0.0000E+00
 Far field            0.0000E+00 0.0000E+00 0.0000E+00 0.0000E+00 0.0000E+00 0.0000E+00
 SWT_Normal           0.0000E+00 0.0000E+00 0.0000E+00 0.0000E+00 0.0000E+00 0.0000E+00
 TRANSPORT ( IN )                        
 Start                3.4421E+01 0.0000E+00 3.4295E+01 1.9144E+02 3.4496E+01 0.0000E+00
 Upstream pipe        2.8413E+01 0.0000E+00 2.8298E+01 1.5822E+02 2.8483E+01 0.0000E+00
 Near pipe            2.2415E+01 0.0000E+00 2.2325E+01 1.2482E+02 2.2470E+01 0.0000E+00
 Far field            0.0000E+00 0.0000E+00 0.0000E+00 0.0000E+00 0.0000E+00 0.0000E+00
 SWT_Normal           3.6000E+01 0.0000E+00 3.6000E+01 1.9800E+02 3.6000E+01 0.0000E+00
 TRANSPORT ( OUT )                       
 Start                3.1413E+01 0.0000E+00 3.1287E+01 1.7491E+02 3.1489E+01 0.0000E+00
 Upstream pipe        2.5414E+01 0.0000E+00 2.5311E+01 1.4152E+02 2.5476E+01 0.0000E+00
 Near pipe            1.9417E+01 0.0000E+00 1.9338E+01 1.0813E+02 1.9464E+01 0.0000E+00
 Far field            0.0000E+00 0.0000E+00 0.0000E+00 0.0000E+00 0.0000E+00 0.0000E+00
 SWT_Normal           0.0000E+00 0.0000E+00 0.0000E+00 0.0000E+00 0.0000E+00 0.0000E+00
 
   1.39% Completed


 DUMP OF INTERMEDIATE RESULTS IN SELECTED SEGMENTS
  TIME =   0D  2H  0M  0S .
 
 TOTAL MASS IN SYSTEM 5.7221E+03 0.0000E+00 5.6439E+03 3.2765E+04 5.7697E+03 0.0000E+00
 CHANGES BY PROCESSES-2.3813E+01 0.0000E+00-6.2708E+01 4.9879E+02 0.0000E+00 0.0000E+00
 CHANGES BY LOADS     0.0000E+00 0.0000E+00 0.0000E+00 0.0000E+00 0.0000E+00 0.0000E+00
 BOUNDARY INFLOWS     3.6000E+01 0.0000E+00 3.6000E+01 1.9800E+02 3.6000E+01 0.0000E+00
 BOUNDARY OUTFLOWS    0.0000E+00 0.0000E+00 0.0000E+00 0.0000E+00 0.0000E+00 0.0000E+00
                      NH4        CBOD5      CBOD5_2    OXY        Continuity SOD        
                                                                                        
 CONCENTRATION                           
 Start                9.9185E-01 0.0000E+00 9.7847E-01 5.6764E+00 1.0000E+00 0.0000E+00
 Upstream pipe        9.9170E-01 0.0000E+00 9.7807E-01 5.6796E+00 1.0000E+00 0.0000E+00
 Near pipe            9.9170E-01 0.0000E+00 9.7806E-01 5.6796E+00 1.0000E+00 0.0000E+00
 Far field            9.9170E-01 0.0000E+00 9.7800E-01 5.6806E+00 1.0000E+00 0.0000E+00
 SWT_Normal           9.9175E-01 0.0000E+00 9.7819E-01 5.6788E+00 1.0000E+00 0.0000E+00
 MASS                                    
 Start                3.0340E+02 0.0000E+00 2.9931E+02 1.7364E+03 3.0589E+02 0.0000E+00
 Upstream pipe        3.0335E+02 0.0000E+00 2.9918E+02 1.7373E+03 3.0589E+02 0.0000E+00
 Near pipe            3.0335E+02 0.0000E+00 2.9918E+02 1.7373E+03 3.0589E+02 0.0000E+00
 Far field            2.9739E+02 0.0000E+00 2.9328E+02 1.7035E+03 2.9988E+02 0.0000E+00
 SWT_Normal           5.7221E+03 0.0000E+00 5.6439E+03 3.2765E+04 5.7697E+03 0.0000E+00
 PROCESSES                               
 Start               -1.2599E+00 0.0000E+00-3.3124E+00 2.6319E+01 0.0000E+00 0.0000E+00
 Upstream pipe       -1.2598E+00 0.0000E+00-3.3118E+00 2.6289E+01 0.0000E+00 0.0000E+00
 Near pipe           -1.2598E+00 0.0000E+00-3.3118E+00 2.6289E+01 0.0000E+00 0.0000E+00
 Far field           -1.2421E+00 0.0000E+00-3.2803E+00 2.6152E+01 0.0000E+00 0.0000E+00
 SWT_Normal          -2.3813E+01 0.0000E+00-6.2708E+01 4.9879E+02 0.0000E+00 0.0000E+00
 LOADS ( IN )                            
 Start                0.0000E+00 0.0000E+00 0.0000E+00 0.0000E+00 0.0000E+00 0.0000E+00
 Upstream pipe        0.0000E+00 0.0000E+00 0.0000E+00 0.0000E+00 0.0000E+00 0.0000E+00
 Near pipe            0.0000E+00 0.0000E+00 0.0000E+00 0.0000E+00 0.0000E+00 0.0000E+00
 Far field            0.0000E+00 0.0000E+00 0.0000E+00 0.0000E+00 0.0000E+00 0.0000E+00
 SWT_Normal           0.0000E+00 0.0000E+00 0.0000E+00 0.0000E+00 0.0000E+00 0.0000E+00
 LOADS ( OUT )                           
 Start                0.0000E+00 0.0000E+00 0.0000E+00 0.0000E+00 0.0000E+00 0.0000E+00
 Upstream pipe        0.0000E+00 0.0000E+00 0.0000E+00 0.0000E+00 0.0000E+00 0.0000E+00
 Near pipe            0.0000E+00 0.0000E+00 0.0000E+00 0.0000E+00 0.0000E+00 0.0000E+00
 Far field            0.0000E+00 0.0000E+00 0.0000E+00 0.0000E+00 0.0000E+00 0.0000E+00
 SWT_Normal           0.0000E+00 0.0000E+00 0.0000E+00 0.0000E+00 0.0000E+00 0.0000E+00
 TRANSPORT ( IN )                        
 Start                3.4312E+01 0.0000E+00 3.4007E+01 1.9380E+02 3.4497E+01 0.0000E+00
 Upstream pipe        2.8298E+01 0.0000E+00 2.7990E+01 1.6077E+02 2.8485E+01 0.0000E+00
 Near pipe            2.2326E+01 0.0000E+00 2.2082E+01 1.2684E+02 2.2473E+01 0.0000E+00
 Far field            0.0000E+00 0.0000E+00 0.0000E+00 0.0000E+00 0.0000E+00 0.0000E+00
 SWT_Normal           3.6000E+01 0.0000E+00 3.6000E+01 1.9800E+02 3.6000E+01 0.0000E+00
 TRANSPORT ( OUT )                       
 Start                3.1287E+01 0.0000E+00 3.0950E+01 1.7768E+02 3.1491E+01 0.0000E+00
 Upstream pipe        2.5312E+01 0.0000E+00 2.5036E+01 1.4381E+02 2.5479E+01 0.0000E+00
 Near pipe            1.9339E+01 0.0000E+00 1.9128E+01 1.0988E+02 1.9467E+01 0.0000E+00
 Far field            0.0000E+00 0.0000E+00 0.0000E+00 0.0000E+00 0.0000E+00 0.0000E+00
 SWT_Normal           0.0000E+00 0.0000E+00 0.0000E+00 0.0000E+00 0.0000E+00 0.0000E+00
 
1
                                             Water quality calculation Sobek-WQ      
                                                                                     
                                                                                     
                                             T0: 2010.01.01 00:00:00  (scu=       1s)
   2.08% Completed


 DUMP OF INTERMEDIATE RESULTS IN SELECTED SEGMENTS
  TIME =   0D  3H  0M  0S .
 
 TOTAL MASS IN SYSTEM 5.7343E+03 0.0000E+00 5.6176E+03 3.3430E+04 5.8057E+03 0.0000E+00
 CHANGES BY PROCESSES-2.3863E+01 0.0000E+00-6.2288E+01 4.6742E+02 0.0000E+00 0.0000E+00
 CHANGES BY LOADS     0.0000E+00 0.0000E+00 0.0000E+00 0.0000E+00 0.0000E+00 0.0000E+00
 BOUNDARY INFLOWS     3.6000E+01 0.0000E+00 3.6000E+01 1.9800E+02 3.6000E+01 0.0000E+00
 BOUNDARY OUTFLOWS    0.0000E+00 0.0000E+00 0.0000E+00 0.0000E+00 0.0000E+00 0.0000E+00
                      NH4        CBOD5      CBOD5_2    OXY        Continuity SOD        
                                                                                        
 CONCENTRATION                           
 Start                9.8801E-01 0.0000E+00 9.6847E-01 5.7511E+00 1.0000E+00 0.0000E+00
 Upstream pipe        9.8758E-01 0.0000E+00 9.6734E-01 5.7598E+00 1.0000E+00 0.0000E+00
 Near pipe            9.8757E-01 0.0000E+00 9.6733E-01 5.7598E+00 1.0000E+00 0.0000E+00
 Far field            9.8757E-01 0.0000E+00 9.6718E-01 5.7620E+00 1.0000E+00 0.0000E+00
 SWT_Normal           9.8770E-01 0.0000E+00 9.6760E-01 5.7582E+00 1.0000E+00 0.0000E+00
 MASS                                    
 Start                3.0519E+02 0.0000E+00 2.9916E+02 1.7765E+03 3.0890E+02 0.0000E+00
 Upstream pipe        3.0506E+02 0.0000E+00 2.9881E+02 1.7792E+03 3.0890E+02 0.0000E+00
 Near pipe            3.0506E+02 0.0000E+00 2.9881E+02 1.7792E+03 3.0890E+02 0.0000E+00
 Far field            2.9615E+02 0.0000E+00 2.9004E+02 1.7279E+03 2.9988E+02 0.0000E+00
 SWT_Normal           5.7343E+03 0.0000E+00 5.6176E+03 3.3430E+04 5.8057E+03 0.0000E+00
 PROCESSES                               
 Start               -1.2673E+00 0.0000E+00-3.2995E+00 2.4758E+01 0.0000E+00 0.0000E+00
 Upstream pipe       -1.2669E+00 0.0000E+00-3.2972E+00 2.4650E+01 0.0000E+00 0.0000E+00
 Near pipe           -1.2669E+00 0.0000E+00-3.2972E+00 2.4649E+01 0.0000E+00 0.0000E+00
 Far field           -1.2370E+00 0.0000E+00-3.2440E+00 2.4424E+01 0.0000E+00 0.0000E+00
 SWT_Normal          -2.3863E+01 0.0000E+00-6.2288E+01 4.6742E+02 0.0000E+00 0.0000E+00
 LOADS ( IN )                            
 Start                0.0000E+00 0.0000E+00 0.0000E+00 0.0000E+00 0.0000E+00 0.0000E+00
 Upstream pipe        0.0000E+00 0.0000E+00 0.0000E+00 0.0000E+00 0.0000E+00 0.0000E+00
 Near pipe            0.0000E+00 0.0000E+00 0.0000E+00 0.0000E+00 0.0000E+00 0.0000E+00
 Far field            0.0000E+00 0.0000E+00 0.0000E+00 0.0000E+00 0.0000E+00 0.0000E+00
 SWT_Normal           0.0000E+00 0.0000E+00 0.0000E+00 0.0000E+00 0.0000E+00 0.0000E+00
 LOADS ( OUT )                           
 Start                0.0000E+00 0.0000E+00 0.0000E+00 0.0000E+00 0.0000E+00 0.0000E+00
 Upstream pipe        0.0000E+00 0.0000E+00 0.0000E+00 0.0000E+00 0.0000E+00 0.0000E+00
 Near pipe            0.0000E+00 0.0000E+00 0.0000E+00 0.0000E+00 0.0000E+00 0.0000E+00
 Far field            0.0000E+00 0.0000E+00 0.0000E+00 0.0000E+00 0.0000E+00 0.0000E+00
 SWT_Normal           0.0000E+00 0.0000E+00 0.0000E+00 0.0000E+00 0.0000E+00 0.0000E+00
 TRANSPORT ( IN )                        
 Start                3.4225E+01 0.0000E+00 3.3780E+01 1.9554E+02 3.4497E+01 0.0000E+00
 Upstream pipe        2.8181E+01 0.0000E+00 2.7683E+01 1.6312E+02 2.8485E+01 0.0000E+00
 Near pipe            2.2232E+01 0.0000E+00 2.1839E+01 1.2870E+02 2.2473E+01 0.0000E+00
 Far field            0.0000E+00 0.0000E+00 0.0000E+00 0.0000E+00 0.0000E+00 0.0000E+00
 SWT_Normal           3.6000E+01 0.0000E+00 3.6000E+01 1.9800E+02 3.6000E+01 0.0000E+00
 TRANSPORT ( OUT )                       
 Start                3.1163E+01 0.0000E+00 3.0628E+01 1.8015E+02 3.1491E+01 0.0000E+00
 Upstream pipe        2.5206E+01 0.0000E+00 2.4760E+01 1.4592E+02 2.5479E+01 0.0000E+00
 Near pipe            1.9259E+01 0.0000E+00 1.8918E+01 1.1149E+02 1.9467E+01 0.0000E+00
 Far field            0.0000E+00 0.0000E+00 0.0000E+00 0.0000E+00 0.0000E+00 0.0000E+00
 SWT_Normal           0.0000E+00 0.0000E+00 0.0000E+00 0.0000E+00 0.0000E+00 0.0000E+00
 
   2.78% Completed


 DUMP OF INTERMEDIATE RESULTS IN SELECTED SEGMENTS
  TIME =   0D  4H  0M  0S .
 
 TOTAL MASS IN SYSTEM 5.7464E+03 0.0000E+00 5.5917E+03 3.4067E+04 5.8417E+03 0.0000E+00
 CHANGES BY PROCESSES-2.3914E+01 0.0000E+00-6.1874E+01 4.3833E+02 0.0000E+00 0.0000E+00
 CHANGES BY LOADS     0.0000E+00 0.0000E+00 0.0000E+00 0.0000E+00 0.0000E+00 0.0000E+00
 BOUNDARY INFLOWS     3.6000E+01 0.0000E+00 3.6000E+01 1.9800E+02 3.6000E+01 0.0000E+00
 BOUNDARY OUTFLOWS    0.0000E+00 0.0000E+00 0.0000E+00 0.0000E+00 0.0000E+00 0.0000E+00
                      NH4        CBOD5      CBOD5_2    OXY        Continuity SOD        
                                                                                        
 CONCENTRATION                           
 Start                9.8437E-01 0.0000E+00 9.5910E-01 5.8171E+00 1.0000E+00 0.0000E+00
 Upstream pipe        9.8347E-01 0.0000E+00 9.5677E-01 5.8342E+00 1.0000E+00 0.0000E+00
 Near pipe            9.8347E-01 0.0000E+00 9.5675E-01 5.8344E+00 1.0000E+00 0.0000E+00
 Far field            9.8347E-01 0.0000E+00 9.5648E-01 5.8381E+00 1.0000E+00 0.0000E+00
 SWT_Normal           9.8368E-01 0.0000E+00 9.5720E-01 5.8316E+00 1.0000E+00 0.0000E+00
 MASS                                    
 Start                3.0703E+02 0.0000E+00 2.9915E+02 1.8144E+03 3.1190E+02 0.0000E+00
 Upstream pipe        3.0675E+02 0.0000E+00 2.9842E+02 1.8197E+03 3.1190E+02 0.0000E+00
 Near pipe            3.0675E+02 0.0000E+00 2.9841E+02 1.8198E+03 3.1190E+02 0.0000E+00
 Far field            2.9492E+02 0.0000E+00 2.8683E+02 1.7507E+03 2.9988E+02 0.0000E+00
 SWT_Normal           5.7464E+03 0.0000E+00 5.5917E+03 3.4067E+04 5.8417E+03 0.0000E+00
 PROCESSES                               
 Start               -1.2748E+00 0.0000E+00-3.2881E+00 2.3369E+01 0.0000E+00 0.0000E+00
 Upstream pipe       -1.2740E+00 0.0000E+00-3.2827E+00 2.3121E+01 0.0000E+00 0.0000E+00
 Near pipe           -1.2740E+00 0.0000E+00-3.2827E+00 2.3119E+01 0.0000E+00 0.0000E+00
 Far field           -1.2318E+00 0.0000E+00-3.2081E+00 2.2811E+01 0.0000E+00 0.0000E+00
 SWT_Normal          -2.3914E+01 0.0000E+00-6.1874E+01 4.3833E+02 0.0000E+00 0.0000E+00
 LOADS ( IN )                            
 Start                0.0000E+00 0.0000E+00 0.0000E+00 0.0000E+00 0.0000E+00 0.0000E+00
 Upstream pipe        0.0000E+00 0.0000E+00 0.0000E+00 0.0000E+00 0.0000E+00 0.0000E+00
 Near pipe            0.0000E+00 0.0000E+00 0.0000E+00 0.0000E+00 0.0000E+00 0.0000E+00
 Far field            0.0000E+00 0.0000E+00 0.0000E+00 0.0000E+00 0.0000E+00 0.0000E+00
 SWT_Normal           0.0000E+00 0.0000E+00 0.0000E+00 0.0000E+00 0.0000E+00 0.0000E+00
 LOADS ( OUT )                           
 Start                0.0000E+00 0.0000E+00 0.0000E+00 0.0000E+00 0.0000E+00 0.0000E+00
 Upstream pipe        0.0000E+00 0.0000E+00 0.0000E+00 0.0000E+00 0.0000E+00 0.0000E+00
 Near pipe            0.0000E+00 0.0000E+00 0.0000E+00 0.0000E+00 0.0000E+00 0.0000E+00
 Far field            0.0000E+00 0.0000E+00 0.0000E+00 0.0000E+00 0.0000E+00 0.0000E+00
 SWT_Normal           0.0000E+00 0.0000E+00 0.0000E+00 0.0000E+00 0.0000E+00 0.0000E+00
 TRANSPORT ( IN )                        
 Start                3.4156E+01 0.0000E+00 3.3601E+01 1.9683E+02 3.4497E+01 0.0000E+00
 Upstream pipe        2.8065E+01 0.0000E+00 2.7384E+01 1.6528E+02 2.8485E+01 0.0000E+00
 Near pipe            2.2140E+01 0.0000E+00 2.1600E+01 1.3043E+02 2.2473E+01 0.0000E+00
 Far field            0.0000E+00 0.0000E+00 0.0000E+00 0.0000E+00 0.0000E+00 0.0000E+00
 SWT_Normal           3.6000E+01 0.0000E+00 3.6000E+01 1.9800E+02 3.6000E+01 0.0000E+00
 TRANSPORT ( OUT )                       
 Start                3.1046E+01 0.0000E+00 3.0324E+01 1.8234E+02 3.1491E+01 0.0000E+00
 Upstream pipe        2.5102E+01 0.0000E+00 2.4489E+01 1.4787E+02 2.5479E+01 0.0000E+00
 Near pipe            1.9179E+01 0.0000E+00 1.8711E+01 1.1298E+02 1.9467E+01 0.0000E+00
 Far field            0.0000E+00 0.0000E+00 0.0000E+00 0.0000E+00 0.0000E+00 0.0000E+00
 SWT_Normal           0.0000E+00 0.0000E+00 0.0000E+00 0.0000E+00 0.0000E+00 0.0000E+00
 
   3.47% Completed


 DUMP OF INTERMEDIATE RESULTS IN SELECTED SEGMENTS
  TIME =   0D  5H  0M  0S .
 
 TOTAL MASS IN SYSTEM 5.7584E+03 0.0000E+00 5.5662E+03 3.4676E+04 5.8777E+03 0.0000E+00
 CHANGES BY PROCESSES-2.3964E+01 0.0000E+00-6.1467E+01 4.1137E+02 0.0000E+00 0.0000E+00
 CHANGES BY LOADS     0.0000E+00 0.0000E+00 0.0000E+00 0.0000E+00 0.0000E+00 0.0000E+00
 BOUNDARY INFLOWS     3.6000E+01 0.0000E+00 3.6000E+01 1.9800E+02 3.6000E+01 0.0000E+00
 BOUNDARY OUTFLOWS    0.0000E+00 0.0000E+00 0.0000E+00 0.0000E+00 0.0000E+00 0.0000E+00
                      NH4        CBOD5      CBOD5_2    OXY        Continuity SOD        
                                                                                        
 CONCENTRATION                           
 Start                9.8095E-01 0.0000E+00 9.5039E-01 5.8748E+00 1.0000E+00 0.0000E+00
 Upstream pipe        9.7940E-01 0.0000E+00 9.4637E-01 5.9033E+00 1.0000E+00 0.0000E+00
 Near pipe            9.7938E-01 0.0000E+00 9.4631E-01 5.9037E+00 1.0000E+00 0.0000E+00
 Far field            9.7938E-01 0.0000E+00 9.4590E-01 5.9092E+00 1.0000E+00 0.0000E+00
 SWT_Normal           9.7970E-01 0.0000E+00 9.4701E-01 5.8996E+00 1.0000E+00 0.0000E+00
 MASS                                    
 Start                3.0891E+02 0.0000E+00 2.9929E+02 1.8500E+03 3.1491E+02 0.0000E+00
 Upstream pipe        3.0842E+02 0.0000E+00 2.9802E+02 1.8590E+03 3.1491E+02 0.0000E+00
 Near pipe            3.0842E+02 0.0000E+00 2.9800E+02 1.8591E+03 3.1491E+02 0.0000E+00
 Far field            2.9370E+02 0.0000E+00 2.8366E+02 1.7720E+03 2.9988E+02 0.0000E+00
 SWT_Normal           5.7584E+03 0.0000E+00 5.5662E+03 3.4676E+04 5.8777E+03 0.0000E+00
 PROCESSES                               
 Start               -1.2825E+00 0.0000E+00-3.2785E+00 2.2147E+01 0.0000E+00 0.0000E+00
 Upstream pipe       -1.2810E+00 0.0000E+00-3.2682E+00 2.1697E+01 0.0000E+00 0.0000E+00
 Near pipe           -1.2810E+00 0.0000E+00-3.2681E+00 2.1692E+01 0.0000E+00 0.0000E+00
 Far field           -1.2267E+00 0.0000E+00-3.1726E+00 2.1308E+01 0.0000E+00 0.0000E+00
 SWT_Normal          -2.3964E+01 0.0000E+00-6.1467E+01 4.1137E+02 0.0000E+00 0.0000E+00
 LOADS ( IN )                            
 Start                0.0000E+00 0.0000E+00 0.0000E+00 0.0000E+00 0.0000E+00 0.0000E+00
 Upstream pipe        0.0000E+00 0.0000E+00 0.0000E+00 0.0000E+00 0.0000E+00 0.0000E+00
 Near pipe            0.0000E+00 0.0000E+00 0.0000E+00 0.0000E+00 0.0000E+00 0.0000E+00
 Far field            0.0000E+00 0.0000E+00 0.0000E+00 0.0000E+00 0.0000E+00 0.0000E+00
 SWT_Normal           0.0000E+00 0.0000E+00 0.0000E+00 0.0000E+00 0.0000E+00 0.0000E+00
 LOADS ( OUT )                           
 Start                0.0000E+00 0.0000E+00 0.0000E+00 0.0000E+00 0.0000E+00 0.0000E+00
 Upstream pipe        0.0000E+00 0.0000E+00 0.0000E+00 0.0000E+00 0.0000E+00 0.0000E+00
 Near pipe            0.0000E+00 0.0000E+00 0.0000E+00 0.0000E+00 0.0000E+00 0.0000E+00
 Far field            0.0000E+00 0.0000E+00 0.0000E+00 0.0000E+00 0.0000E+00 0.0000E+00
 SWT_Normal           0.0000E+00 0.0000E+00 0.0000E+00 0.0000E+00 0.0000E+00 0.0000E+00
 TRANSPORT ( IN )                        
 Start                3.4100E+01 0.0000E+00 3.3460E+01 1.9779E+02 3.4497E+01 0.0000E+00
 Upstream pipe        2.7951E+01 0.0000E+00 2.7091E+01 1.6727E+02 2.8485E+01 0.0000E+00
 Near pipe            2.2048E+01 0.0000E+00 2.1364E+01 1.3203E+02 2.2473E+01 0.0000E+00
 Far field            0.0000E+00 0.0000E+00 0.0000E+00 0.0000E+00 0.0000E+00 0.0000E+00
 SWT_Normal           3.6000E+01 0.0000E+00 3.6000E+01 1.9800E+02 3.6000E+01 0.0000E+00
 TRANSPORT ( OUT )                       
 Start                3.0935E+01 0.0000E+00 3.0041E+01 1.8427E+02 3.1491E+01 0.0000E+00
 Upstream pipe        2.4997E+01 0.0000E+00 2.4223E+01 1.4969E+02 2.5479E+01 0.0000E+00
 Near pipe            1.9099E+01 0.0000E+00 1.8506E+01 1.1437E+02 1.9467E+01 0.0000E+00
 Far field            0.0000E+00 0.0000E+00 0.0000E+00 0.0000E+00 0.0000E+00 0.0000E+00
 SWT_Normal           0.0000E+00 0.0000E+00 0.0000E+00 0.0000E+00 0.0000E+00 0.0000E+00
 
1
                                             Water quality calculation Sobek-WQ      
                                                                                     
                                                                                     
                                             T0: 2010.01.01 00:00:00  (scu=       1s)
   4.17% Completed


 DUMP OF INTERMEDIATE RESULTS IN SELECTED SEGMENTS
  TIME =   0D  6H  0M  0S .
 
 TOTAL MASS IN SYSTEM 5.7704E+03 0.0000E+00 5.5412E+03 3.5260E+04 5.9137E+03 0.0000E+00
 CHANGES BY PROCESSES-2.4014E+01 0.0000E+00-6.1067E+01 3.8635E+02 0.0000E+00 0.0000E+00
 CHANGES BY LOADS     0.0000E+00 0.0000E+00 0.0000E+00 0.0000E+00 0.0000E+00 0.0000E+00
 BOUNDARY INFLOWS     3.6000E+01 0.0000E+00 3.6000E+01 1.9800E+02 3.6000E+01 0.0000E+00
 BOUNDARY OUTFLOWS    0.0000E+00 0.0000E+00 0.0000E+00 0.0000E+00 0.0000E+00 0.0000E+00
                      NH4        CBOD5      CBOD5_2    OXY        Continuity SOD        
                                                                                        
 CONCENTRATION                           
 Start                9.7775E-01 0.0000E+00 9.4233E-01 5.9251E+00 1.0000E+00 0.0000E+00
 Upstream pipe        9.7535E-01 0.0000E+00 9.3614E-01 5.9673E+00 1.0000E+00 0.0000E+00
 Near pipe            9.7530E-01 0.0000E+00 9.3602E-01 5.9681E+00 1.0000E+00 0.0000E+00
 Far field            9.7530E-01 0.0000E+00 9.3544E-01 5.9755E+00 1.0000E+00 0.0000E+00
 SWT_Normal           9.7576E-01 0.0000E+00 9.3700E-01 5.9625E+00 1.0000E+00 0.0000E+00
 MASS                                    
 Start                3.1084E+02 0.0000E+00 2.9958E+02 1.8837E+03 3.1792E+02 0.0000E+00
 Upstream pipe        3.1008E+02 0.0000E+00 2.9761E+02 1.8971E+03 3.1792E+02 0.0000E+00
 Near pipe            3.1006E+02 0.0000E+00 2.9758E+02 1.8973E+03 3.1792E+02 0.0000E+00
 Far field            2.9247E+02 0.0000E+00 2.8052E+02 1.7919E+03 2.9988E+02 0.0000E+00
 SWT_Normal           5.7704E+03 0.0000E+00 5.5412E+03 3.5260E+04 5.9137E+03 0.0000E+00
 PROCESSES                               
 Start               -1.2905E+00 0.0000E+00-3.2707E+00 2.1079E+01 0.0000E+00 0.0000E+00
 Upstream pipe       -1.2880E+00 0.0000E+00-3.2538E+00 2.0370E+01 0.0000E+00 0.0000E+00
 Near pipe           -1.2879E+00 0.0000E+00-3.2535E+00 2.0358E+01 0.0000E+00 0.0000E+00
 Far field           -1.2216E+00 0.0000E+00-3.1376E+00 1.9905E+01 0.0000E+00 0.0000E+00
 SWT_Normal          -2.4014E+01 0.0000E+00-6.1067E+01 3.8635E+02 0.0000E+00 0.0000E+00
 LOADS ( IN )                            
 Start                0.0000E+00 0.0000E+00 0.0000E+00 0.0000E+00 0.0000E+00 0.0000E+00
 Upstream pipe        0.0000E+00 0.0000E+00 0.0000E+00 0.0000E+00 0.0000E+00 0.0000E+00
 Near pipe            0.0000E+00 0.0000E+00 0.0000E+00 0.0000E+00 0.0000E+00 0.0000E+00
 Far field            0.0000E+00 0.0000E+00 0.0000E+00 0.0000E+00 0.0000E+00 0.0000E+00
 SWT_Normal           0.0000E+00 0.0000E+00 0.0000E+00 0.0000E+00 0.0000E+00 0.0000E+00
 LOADS ( OUT )                           
 Start                0.0000E+00 0.0000E+00 0.0000E+00 0.0000E+00 0.0000E+00 0.0000E+00
 Upstream pipe        0.0000E+00 0.0000E+00 0.0000E+00 0.0000E+00 0.0000E+00 0.0000E+00
 Near pipe            0.0000E+00 0.0000E+00 0.0000E+00 0.0000E+00 0.0000E+00 0.0000E+00
 Far field            0.0000E+00 0.0000E+00 0.0000E+00 0.0000E+00 0.0000E+00 0.0000E+00
 SWT_Normal           0.0000E+00 0.0000E+00 0.0000E+00 0.0000E+00 0.0000E+00 0.0000E+00
 TRANSPORT ( IN )                        
 Start                3.4055E+01 0.0000E+00 3.3347E+01 1.9851E+02 3.4497E+01 0.0000E+00
 Upstream pipe        2.7839E+01 0.0000E+00 2.6807E+01 1.6909E+02 2.8485E+01 0.0000E+00
 Near pipe            2.1956E+01 0.0000E+00 2.1132E+01 1.3353E+02 2.2473E+01 0.0000E+00
 Far field            0.0000E+00 0.0000E+00 0.0000E+00 0.0000E+00 0.0000E+00 0.0000E+00
 SWT_Normal           3.6000E+01 0.0000E+00 3.6000E+01 1.9800E+02 3.6000E+01 0.0000E+00
 TRANSPORT ( OUT )                       
 Start                3.0832E+01 0.0000E+00 2.9779E+01 1.8595E+02 3.1491E+01 0.0000E+00
 Upstream pipe        2.4894E+01 0.0000E+00 2.3960E+01 1.5137E+02 2.5479E+01 0.0000E+00
 Near pipe            1.9019E+01 0.0000E+00 1.8305E+01 1.1567E+02 1.9467E+01 0.0000E+00
 Far field            0.0000E+00 0.0000E+00 0.0000E+00 0.0000E+00 0.0000E+00 0.0000E+00
 SWT_Normal           0.0000E+00 0.0000E+00 0.0000E+00 0.0000E+00 0.0000E+00 0.0000E+00
 
   4.86% Completed


 DUMP OF INTERMEDIATE RESULTS IN SELECTED SEGMENTS
  TIME =   0D  7H  0M  0S .
 
 TOTAL MASS IN SYSTEM 5.7823E+03 0.0000E+00 5.5165E+03 3.5822E+04 5.9497E+03 0.0000E+00
 CHANGES BY PROCESSES-2.4064E+01 0.0000E+00-6.0673E+01 3.6314E+02 0.0000E+00 0.0000E+00
 CHANGES BY LOADS     0.0000E+00 0.0000E+00 0.0000E+00 0.0000E+00 0.0000E+00 0.0000E+00
 BOUNDARY INFLOWS     3.6000E+01 0.0000E+00 3.6000E+01 1.9800E+02 3.6000E+01 0.0000E+00
 BOUNDARY OUTFLOWS    0.0000E+00 0.0000E+00 0.0000E+00 0.0000E+00 0.0000E+00 0.0000E+00
                      NH4        CBOD5      CBOD5_2    OXY        Continuity SOD        
                                                                                        
 CONCENTRATION                           
 Start                9.7478E-01 0.0000E+00 9.3492E-01 5.9686E+00 1.0000E+00 0.0000E+00
 Upstream pipe        9.7133E-01 0.0000E+00 9.2609E-01 6.0266E+00 1.0000E+00 0.0000E+00
 Near pipe            9.7125E-01 0.0000E+00 9.2587E-01 6.0279E+00 1.0000E+00 0.0000E+00
 Far field            9.7124E-01 0.0000E+00 9.2510E-01 6.0376E+00 1.0000E+00 0.0000E+00
 SWT_Normal           9.7187E-01 0.0000E+00 9.2719E-01 6.0207E+00 1.0000E+00 0.0000E+00
 MASS                                    
 Start                3.1283E+02 0.0000E+00 3.0004E+02 1.9155E+03 3.2092E+02 0.0000E+00
 Upstream pipe        3.1172E+02 0.0000E+00 2.9720E+02 1.9341E+03 3.2092E+02 0.0000E+00
 Near pipe            3.1169E+02 0.0000E+00 2.9713E+02 1.9345E+03 3.2092E+02 0.0000E+00
 Far field            2.9126E+02 0.0000E+00 2.7742E+02 1.8105E+03 2.9988E+02 0.0000E+00
 SWT_Normal           5.7823E+03 0.0000E+00 5.5165E+03 3.5822E+04 5.9497E+03 0.0000E+00
 PROCESSES                               
 Start               -1.2986E+00 0.0000E+00-3.2647E+00 2.0151E+01 0.0000E+00 0.0000E+00
 Upstream pipe       -1.2949E+00 0.0000E+00-3.2395E+00 1.9135E+01 0.0000E+00 0.0000E+00
 Near pipe           -1.2948E+00 0.0000E+00-3.2389E+00 1.9113E+01 0.0000E+00 0.0000E+00
 Far field           -1.2165E+00 0.0000E+00-3.1028E+00 1.8598E+01 0.0000E+00 0.0000E+00
 SWT_Normal          -2.4064E+01 0.0000E+00-6.0673E+01 3.6314E+02 0.0000E+00 0.0000E+00
 LOADS ( IN )                            
 Start                0.0000E+00 0.0000E+00 0.0000E+00 0.0000E+00 0.0000E+00 0.0000E+00
 Upstream pipe        0.0000E+00 0.0000E+00 0.0000E+00 0.0000E+00 0.0000E+00 0.0000E+00
 Near pipe            0.0000E+00 0.0000E+00 0.0000E+00 0.0000E+00 0.0000E+00 0.0000E+00
 Far field            0.0000E+00 0.0000E+00 0.0000E+00 0.0000E+00 0.0000E+00 0.0000E+00
 SWT_Normal           0.0000E+00 0.0000E+00 0.0000E+00 0.0000E+00 0.0000E+00 0.0000E+00
 LOADS ( OUT )                           
 Start                0.0000E+00 0.0000E+00 0.0000E+00 0.0000E+00 0.0000E+00 0.0000E+00
 Upstream pipe        0.0000E+00 0.0000E+00 0.0000E+00 0.0000E+00 0.0000E+00 0.0000E+00
 Near pipe            0.0000E+00 0.0000E+00 0.0000E+00 0.0000E+00 0.0000E+00 0.0000E+00
 Far field            0.0000E+00 0.0000E+00 0.0000E+00 0.0000E+00 0.0000E+00 0.0000E+00
 SWT_Normal           0.0000E+00 0.0000E+00 0.0000E+00 0.0000E+00 0.0000E+00 0.0000E+00
 TRANSPORT ( IN )                        
 Start                3.4018E+01 0.0000E+00 3.3256E+01 1.9904E+02 3.4497E+01 0.0000E+00
 Upstream pipe        2.7729E+01 0.0000E+00 2.6532E+01 1.7076E+02 2.8485E+01 0.0000E+00
 Near pipe            2.1865E+01 0.0000E+00 2.0902E+01 1.3491E+02 2.2473E+01 0.0000E+00
 Far field            0.0000E+00 0.0000E+00 0.0000E+00 0.0000E+00 0.0000E+00 0.0000E+00
 SWT_Normal           3.6000E+01 0.0000E+00 3.6000E+01 1.9800E+02 3.6000E+01 0.0000E+00
 TRANSPORT ( OUT )                       
 Start                3.0735E+01 0.0000E+00 2.9537E+01 1.8740E+02 3.1491E+01 0.0000E+00
 Upstream pipe        2.4791E+01 0.0000E+00 2.3702E+01 1.5293E+02 2.5479E+01 0.0000E+00
 Near pipe            1.8940E+01 0.0000E+00 1.8106E+01 1.1687E+02 1.9467E+01 0.0000E+00
 Far field            0.0000E+00 0.0000E+00 0.0000E+00 0.0000E+00 0.0000E+00 0.0000E+00
 SWT_Normal           0.0000E+00 0.0000E+00 0.0000E+00 0.0000E+00 0.0000E+00 0.0000E+00
 
   5.56% Completed


 DUMP OF INTERMEDIATE RESULTS IN SELECTED SEGMENTS
  TIME =   0D  8H  0M  0S .
 
 TOTAL MASS IN SYSTEM 5.7942E+03 0.0000E+00 5.4922E+03 3.6361E+04 5.9857E+03 0.0000E+00
 CHANGES BY PROCESSES-2.4114E+01 0.0000E+00-6.0285E+01 3.4159E+02 0.0000E+00 0.0000E+00
 CHANGES BY LOADS     0.0000E+00 0.0000E+00 0.0000E+00 0.0000E+00 0.0000E+00 0.0000E+00
 BOUNDARY INFLOWS     3.6000E+01 0.0000E+00 3.6000E+01 1.9800E+02 3.6000E+01 0.0000E+00
 BOUNDARY OUTFLOWS    0.0000E+00 0.0000E+00 0.0000E+00 0.0000E+00 0.0000E+00 0.0000E+00
                      NH4        CBOD5      CBOD5_2    OXY        Continuity SOD        
                                                                                        
 CONCENTRATION                           
 Start                9.7201E-01 0.0000E+00 9.2812E-01 6.0063E+00 1.0000E+00 0.0000E+00
 Upstream pipe        9.6735E-01 0.0000E+00 9.1624E-01 6.0814E+00 1.0000E+00 0.0000E+00
 Near pipe            9.6721E-01 0.0000E+00 9.1587E-01 6.0836E+00 1.0000E+00 0.0000E+00
 Far field            9.6720E-01 0.0000E+00 9.1486E-01 6.0955E+00 1.0000E+00 0.0000E+00
 SWT_Normal           9.6801E-01 0.0000E+00 9.1755E-01 6.0746E+00 1.0000E+00 0.0000E+00
 MASS                                    
 Start                3.1486E+02 0.0000E+00 3.0065E+02 1.9456E+03 3.2393E+02 0.0000E+00
 Upstream pipe        3.1335E+02 0.0000E+00 2.9680E+02 1.9699E+03 3.2393E+02 0.0000E+00
 Near pipe            3.1331E+02 0.0000E+00 2.9668E+02 1.9707E+03 3.2393E+02 0.0000E+00
 Far field            2.9005E+02 0.0000E+00 2.7435E+02 1.8279E+03 2.9988E+02 0.0000E+00
 SWT_Normal           5.7942E+03 0.0000E+00 5.4922E+03 3.6361E+04 5.9857E+03 0.0000E+00
 PROCESSES                               
 Start               -1.3070E+00 0.0000E+00-3.2606E+00 1.9350E+01 0.0000E+00 0.0000E+00
 Upstream pipe       -1.3017E+00 0.0000E+00-3.2253E+00 1.7986E+01 0.0000E+00 0.0000E+00
 Near pipe           -1.3015E+00 0.0000E+00-3.2244E+00 1.7950E+01 0.0000E+00 0.0000E+00
 Far field           -1.2115E+00 0.0000E+00-3.0685E+00 1.7378E+01 0.0000E+00 0.0000E+00
 SWT_Normal          -2.4114E+01 0.0000E+00-6.0285E+01 3.4159E+02 0.0000E+00 0.0000E+00
 LOADS ( IN )                            
 Start                0.0000E+00 0.0000E+00 0.0000E+00 0.0000E+00 0.0000E+00 0.0000E+00
 Upstream pipe        0.0000E+00 0.0000E+00 0.0000E+00 0.0000E+00 0.0000E+00 0.0000E+00
 Near pipe            0.0000E+00 0.0000E+00 0.0000E+00 0.0000E+00 0.0000E+00 0.0000E+00
 Far field            0.0000E+00 0.0000E+00 0.0000E+00 0.0000E+00 0.0000E+00 0.0000E+00
 SWT_Normal           0.0000E+00 0.0000E+00 0.0000E+00 0.0000E+00 0.0000E+00 0.0000E+00
 LOADS ( OUT )                           
 Start                0.0000E+00 0.0000E+00 0.0000E+00 0.0000E+00 0.0000E+00 0.0000E+00
 Upstream pipe        0.0000E+00 0.0000E+00 0.0000E+00 0.0000E+00 0.0000E+00 0.0000E+00
 Near pipe            0.0000E+00 0.0000E+00 0.0000E+00 0.0000E+00 0.0000E+00 0.0000E+00
 Far field            0.0000E+00 0.0000E+00 0.0000E+00 0.0000E+00 0.0000E+00 0.0000E+00
 SWT_Normal           0.0000E+00 0.0000E+00 0.0000E+00 0.0000E+00 0.0000E+00 0.0000E+00
 TRANSPORT ( IN )                        
 Start                3.3988E+01 0.0000E+00 3.3183E+01 1.9945E+02 3.4497E+01 0.0000E+00
 Upstream pipe        2.7622E+01 0.0000E+00 2.6267E+01 1.7227E+02 2.8485E+01 0.0000E+00
 Near pipe            2.1774E+01 0.0000E+00 2.0677E+01 1.3620E+02 2.2473E+01 0.0000E+00
 Far field            0.0000E+00 0.0000E+00 0.0000E+00 0.0000E+00 0.0000E+00 0.0000E+00
 SWT_Normal           3.6000E+01 0.0000E+00 3.6000E+01 1.9800E+02 3.6000E+01 0.0000E+00
 TRANSPORT ( OUT )                       
 Start                3.0645E+01 0.0000E+00 2.9315E+01 1.8866E+02 3.1491E+01 0.0000E+00
 Upstream pipe        2.4689E+01 0.0000E+00 2.3449E+01 1.5437E+02 2.5479E+01 0.0000E+00
 Near pipe            1.8861E+01 0.0000E+00 1.7910E+01 1.1799E+02 1.9467E+01 0.0000E+00
 Far field            0.0000E+00 0.0000E+00 0.0000E+00 0.0000E+00 0.0000E+00 0.0000E+00
 SWT_Normal           0.0000E+00 0.0000E+00 0.0000E+00 0.0000E+00 0.0000E+00 0.0000E+00
 
1
                                             Water quality calculation Sobek-WQ      
                                                                                     
                                                                                     
                                             T0: 2010.01.01 00:00:00  (scu=       1s)
   6.25% Completed


 DUMP OF INTERMEDIATE RESULTS IN SELECTED SEGMENTS
  TIME =   0D  9H  0M  0S .
 
 TOTAL MASS IN SYSTEM 5.8061E+03 0.0000E+00 5.4683E+03 3.6881E+04 6.0217E+03 0.0000E+00
 CHANGES BY PROCESSES-2.4163E+01 0.0000E+00-5.9903E+01 3.2159E+02 0.0000E+00 0.0000E+00
 CHANGES BY LOADS     0.0000E+00 0.0000E+00 0.0000E+00 0.0000E+00 0.0000E+00 0.0000E+00
 BOUNDARY INFLOWS     3.6000E+01 0.0000E+00 3.6000E+01 1.9800E+02 3.6000E+01 0.0000E+00
 BOUNDARY OUTFLOWS    0.0000E+00 0.0000E+00 0.0000E+00 0.0000E+00 0.0000E+00 0.0000E+00
                      NH4        CBOD5      CBOD5_2    OXY        Continuity SOD        
                                                                                        
 CONCENTRATION                           
 Start                9.6945E-01 0.0000E+00 9.2189E-01 6.0387E+00 1.0000E+00 0.0000E+00
 Upstream pipe        9.6342E-01 0.0000E+00 9.0659E-01 6.1321E+00 1.0000E+00 0.0000E+00
 Near pipe            9.6319E-01 0.0000E+00 9.0600E-01 6.1355E+00 1.0000E+00 0.0000E+00
 Far field            9.6318E-01 0.0000E+00 9.0474E-01 6.1497E+00 1.0000E+00 0.0000E+00
 SWT_Normal           9.6418E-01 0.0000E+00 9.0810E-01 6.1246E+00 1.0000E+00 0.0000E+00
 MASS                                    
 Start                3.1695E+02 0.0000E+00 3.0140E+02 1.9743E+03 3.2693E+02 0.0000E+00
 Upstream pipe        3.1497E+02 0.0000E+00 2.9639E+02 2.0048E+03 3.2693E+02 0.0000E+00
 Near pipe            3.1490E+02 0.0000E+00 2.9620E+02 2.0059E+03 3.2693E+02 0.0000E+00
 Far field            2.8884E+02 0.0000E+00 2.7131E+02 1.8442E+03 2.9988E+02 0.0000E+00
 SWT_Normal           5.8061E+03 0.0000E+00 5.4683E+03 3.6881E+04 6.0217E+03 0.0000E+00
 PROCESSES                               
 Start               -1.3155E+00 0.0000E+00-3.2582E+00 1.8660E+01 0.0000E+00 0.0000E+00
 Upstream pipe       -1.3085E+00 0.0000E+00-3.2114E+00 1.6920E+01 0.0000E+00 0.0000E+00
 Near pipe           -1.3082E+00 0.0000E+00-3.2098E+00 1.6863E+01 0.0000E+00 0.0000E+00
 Far field           -1.2064E+00 0.0000E+00-3.0346E+00 1.6240E+01 0.0000E+00 0.0000E+00
 SWT_Normal          -2.4163E+01 0.0000E+00-5.9903E+01 3.2159E+02 0.0000E+00 0.0000E+00
 LOADS ( IN )                            
 Start                0.0000E+00 0.0000E+00 0.0000E+00 0.0000E+00 0.0000E+00 0.0000E+00
 Upstream pipe        0.0000E+00 0.0000E+00 0.0000E+00 0.0000E+00 0.0000E+00 0.0000E+00
 Near pipe            0.0000E+00 0.0000E+00 0.0000E+00 0.0000E+00 0.0000E+00 0.0000E+00
 Far field            0.0000E+00 0.0000E+00 0.0000E+00 0.0000E+00 0.0000E+00 0.0000E+00
 SWT_Normal           0.0000E+00 0.0000E+00 0.0000E+00 0.0000E+00 0.0000E+00 0.0000E+00
 LOADS ( OUT )                           
 Start                0.0000E+00 0.0000E+00 0.0000E+00 0.0000E+00 0.0000E+00 0.0000E+00
 Upstream pipe        0.0000E+00 0.0000E+00 0.0000E+00 0.0000E+00 0.0000E+00 0.0000E+00
 Near pipe            0.0000E+00 0.0000E+00 0.0000E+00 0.0000E+00 0.0000E+00 0.0000E+00
 Far field            0.0000E+00 0.0000E+00 0.0000E+00 0.0000E+00 0.0000E+00 0.0000E+00
 SWT_Normal           0.0000E+00 0.0000E+00 0.0000E+00 0.0000E+00 0.0000E+00 0.0000E+00
 TRANSPORT ( IN )                        
 Start                3.3963E+01 0.0000E+00 3.3124E+01 1.9976E+02 3.4497E+01 0.0000E+00
 Upstream pipe        2.7518E+01 0.0000E+00 2.6011E+01 1.7364E+02 2.8485E+01 0.0000E+00
 Near pipe            2.1684E+01 0.0000E+00 2.0454E+01 1.3740E+02 2.2473E+01 0.0000E+00
 Far field            0.0000E+00 0.0000E+00 0.0000E+00 0.0000E+00 0.0000E+00 0.0000E+00
 SWT_Normal           3.6000E+01 0.0000E+00 3.6000E+01 1.9800E+02 3.6000E+01 0.0000E+00
 TRANSPORT ( OUT )                       
 Start                3.0562E+01 0.0000E+00 2.9112E+01 1.8975E+02 3.1491E+01 0.0000E+00
 Upstream pipe        2.4589E+01 0.0000E+00 2.3201E+01 1.5571E+02 2.5479E+01 0.0000E+00
 Near pipe            1.8783E+01 0.0000E+00 1.7717E+01 1.1903E+02 1.9467E+01 0.0000E+00
 Far field            0.0000E+00 0.0000E+00 0.0000E+00 0.0000E+00 0.0000E+00 0.0000E+00
 SWT_Normal           0.0000E+00 0.0000E+00 0.0000E+00 0.0000E+00 0.0000E+00 0.0000E+00
 
   6.94% Completed


 DUMP OF INTERMEDIATE RESULTS IN SELECTED SEGMENTS
  TIME =   0D 10H  0M  0S .
 
 TOTAL MASS IN SYSTEM 5.8178E+03 0.0000E+00 5.4448E+03 3.7382E+04 6.0577E+03 0.0000E+00
 CHANGES BY PROCESSES-2.4212E+01 0.0000E+00-5.9527E+01 3.0301E+02 0.0000E+00 0.0000E+00
 CHANGES BY LOADS     0.0000E+00 0.0000E+00 0.0000E+00 0.0000E+00 0.0000E+00 0.0000E+00
 BOUNDARY INFLOWS     3.6000E+01 0.0000E+00 3.6000E+01 1.9800E+02 3.6000E+01 0.0000E+00
 BOUNDARY OUTFLOWS    0.0000E+00 0.0000E+00 0.0000E+00 0.0000E+00 0.0000E+00 0.0000E+00
                      NH4        CBOD5      CBOD5_2    OXY        Continuity SOD        
                                                                                        
 CONCENTRATION                           
 Start                9.6709E-01 0.0000E+00 9.1620E-01 6.0667E+00 1.0000E+00 0.0000E+00
 Upstream pipe        9.5953E-01 0.0000E+00 8.9715E-01 6.1789E+00 1.0000E+00 0.0000E+00
 Near pipe            9.5918E-01 0.0000E+00 8.9627E-01 6.1837E+00 1.0000E+00 0.0000E+00
 Far field            9.5918E-01 0.0000E+00 8.9474E-01 6.2003E+00 1.0000E+00 0.0000E+00
 SWT_Normal           9.6040E-01 0.0000E+00 8.9882E-01 6.1709E+00 1.0000E+00 0.0000E+00
 MASS                                    
 Start                3.1908E+02 0.0000E+00 3.0229E+02 2.0016E+03 3.2994E+02 0.0000E+00
 Upstream pipe        3.1659E+02 0.0000E+00 2.9601E+02 2.0387E+03 3.2994E+02 0.0000E+00
 Near pipe            3.1647E+02 0.0000E+00 2.9572E+02 2.0403E+03 3.2994E+02 0.0000E+00
 Far field            2.8764E+02 0.0000E+00 2.6831E+02 1.8593E+03 2.9988E+02 0.0000E+00
 SWT_Normal           5.8178E+03 0.0000E+00 5.4448E+03 3.7382E+04 6.0577E+03 0.0000E+00
 PROCESSES                               
 Start               -1.3243E+00 0.0000E+00-3.2574E+00 1.8067E+01 0.0000E+00 0.0000E+00
 Upstream pipe       -1.3152E+00 0.0000E+00-3.1977E+00 1.5932E+01 0.0000E+00 0.0000E+00
 Near pipe           -1.3148E+00 0.0000E+00-3.1952E+00 1.5847E+01 0.0000E+00 0.0000E+00
 Far field           -1.2014E+00 0.0000E+00-3.0010E+00 1.5178E+01 0.0000E+00 0.0000E+00
 SWT_Normal          -2.4212E+01 0.0000E+00-5.9527E+01 3.0301E+02 0.0000E+00 0.0000E+00
 LOADS ( IN )                            
 Start                0.0000E+00 0.0000E+00 0.0000E+00 0.0000E+00 0.0000E+00 0.0000E+00
 Upstream pipe        0.0000E+00 0.0000E+00 0.0000E+00 0.0000E+00 0.0000E+00 0.0000E+00
 Near pipe            0.0000E+00 0.0000E+00 0.0000E+00 0.0000E+00 0.0000E+00 0.0000E+00
 Far field            0.0000E+00 0.0000E+00 0.0000E+00 0.0000E+00 0.0000E+00 0.0000E+00
 SWT_Normal           0.0000E+00 0.0000E+00 0.0000E+00 0.0000E+00 0.0000E+00 0.0000E+00
 LOADS ( OUT )                           
 Start                0.0000E+00 0.0000E+00 0.0000E+00 0.0000E+00 0.0000E+00 0.0000E+00
 Upstream pipe        0.0000E+00 0.0000E+00 0.0000E+00 0.0000E+00 0.0000E+00 0.0000E+00
 Near pipe            0.0000E+00 0.0000E+00 0.0000E+00 0.0000E+00 0.0000E+00 0.0000E+00
 Far field            0.0000E+00 0.0000E+00 0.0000E+00 0.0000E+00 0.0000E+00 0.0000E+00
 SWT_Normal           0.0000E+00 0.0000E+00 0.0000E+00 0.0000E+00 0.0000E+00 0.0000E+00
 TRANSPORT ( IN )                        
 Start                3.3942E+01 0.0000E+00 3.3075E+01 2.0000E+02 3.4497E+01 0.0000E+00
 Upstream pipe        2.7418E+01 0.0000E+00 2.5767E+01 1.7488E+02 2.8485E+01 0.0000E+00
 Near pipe            2.1594E+01 0.0000E+00 2.0235E+01 1.3851E+02 2.2473E+01 0.0000E+00
 Far field            0.0000E+00 0.0000E+00 0.0000E+00 0.0000E+00 0.0000E+00 0.0000E+00
 SWT_Normal           3.6000E+01 0.0000E+00 3.6000E+01 1.9800E+02 3.6000E+01 0.0000E+00
 TRANSPORT ( OUT )                       
 Start                3.0485E+01 0.0000E+00 2.8926E+01 1.9069E+02 3.1491E+01 0.0000E+00
 Upstream pipe        2.4489E+01 0.0000E+00 2.2958E+01 1.5694E+02 2.5479E+01 0.0000E+00
 Near pipe            1.8705E+01 0.0000E+00 1.7527E+01 1.1999E+02 1.9467E+01 0.0000E+00
 Far field            0.0000E+00 0.0000E+00 0.0000E+00 0.0000E+00 0.0000E+00 0.0000E+00
 SWT_Normal           0.0000E+00 0.0000E+00 0.0000E+00 0.0000E+00 0.0000E+00 0.0000E+00
 
   7.64% Completed


 DUMP OF INTERMEDIATE RESULTS IN SELECTED SEGMENTS
  TIME =   0D 11H  0M  0S .
 
 TOTAL MASS IN SYSTEM 5.8296E+03 0.0000E+00 5.4216E+03 3.7865E+04 6.0937E+03 0.0000E+00
 CHANGES BY PROCESSES-2.4261E+01 0.0000E+00-5.9157E+01 2.8576E+02 0.0000E+00 0.0000E+00
 CHANGES BY LOADS     0.0000E+00 0.0000E+00 0.0000E+00 0.0000E+00 0.0000E+00 0.0000E+00
 BOUNDARY INFLOWS     3.6000E+01 0.0000E+00 3.6000E+01 1.9800E+02 3.6000E+01 0.0000E+00
 BOUNDARY OUTFLOWS    0.0000E+00 0.0000E+00 0.0000E+00 0.0000E+00 0.0000E+00 0.0000E+00
                      NH4        CBOD5      CBOD5_2    OXY        Continuity SOD        
                                                                                        
 CONCENTRATION                           
 Start                9.6489E-01 0.0000E+00 9.1099E-01 6.0907E+00 1.0000E+00 0.0000E+00
 Upstream pipe        9.5570E-01 0.0000E+00 8.8793E-01 6.2220E+00 1.0000E+00 0.0000E+00
 Near pipe            9.5520E-01 0.0000E+00 8.8668E-01 6.2287E+00 1.0000E+00 0.0000E+00
 Far field            9.5519E-01 0.0000E+00 8.8484E-01 6.2476E+00 1.0000E+00 0.0000E+00
 SWT_Normal           9.5665E-01 0.0000E+00 8.8971E-01 6.2138E+00 1.0000E+00 0.0000E+00
 MASS                                    
 Start                3.2126E+02 0.0000E+00 3.0331E+02 2.0279E+03 3.3295E+02 0.0000E+00
 Upstream pipe        3.1820E+02 0.0000E+00 2.9563E+02 2.0716E+03 3.3295E+02 0.0000E+00
 Near pipe            3.1803E+02 0.0000E+00 2.9522E+02 2.0738E+03 3.3295E+02 0.0000E+00
 Far field            2.8644E+02 0.0000E+00 2.6535E+02 1.8735E+03 2.9988E+02 0.0000E+00
 SWT_Normal           5.8296E+03 0.0000E+00 5.4216E+03 3.7865E+04 6.0937E+03 0.0000E+00
 PROCESSES                               
 Start               -1.3333E+00 0.0000E+00-3.2582E+00 1.7560E+01 0.0000E+00 0.0000E+00
 Upstream pipe       -1.3219E+00 0.0000E+00-3.1843E+00 1.5016E+01 0.0000E+00 0.0000E+00
 Near pipe           -1.3213E+00 0.0000E+00-3.1807E+00 1.4898E+01 0.0000E+00 0.0000E+00
 Far field           -1.1964E+00 0.0000E+00-2.9678E+00 1.4188E+01 0.0000E+00 0.0000E+00
 SWT_Normal          -2.4261E+01 0.0000E+00-5.9157E+01 2.8576E+02 0.0000E+00 0.0000E+00
 LOADS ( IN )                            
 Start                0.0000E+00 0.0000E+00 0.0000E+00 0.0000E+00 0.0000E+00 0.0000E+00
 Upstream pipe        0.0000E+00 0.0000E+00 0.0000E+00 0.0000E+00 0.0000E+00 0.0000E+00
 Near pipe            0.0000E+00 0.0000E+00 0.0000E+00 0.0000E+00 0.0000E+00 0.0000E+00
 Far field            0.0000E+00 0.0000E+00 0.0000E+00 0.0000E+00 0.0000E+00 0.0000E+00
 SWT_Normal           0.0000E+00 0.0000E+00 0.0000E+00 0.0000E+00 0.0000E+00 0.0000E+00
 LOADS ( OUT )                           
 Start                0.0000E+00 0.0000E+00 0.0000E+00 0.0000E+00 0.0000E+00 0.0000E+00
 Upstream pipe        0.0000E+00 0.0000E+00 0.0000E+00 0.0000E+00 0.0000E+00 0.0000E+00
 Near pipe            0.0000E+00 0.0000E+00 0.0000E+00 0.0000E+00 0.0000E+00 0.0000E+00
 Far field            0.0000E+00 0.0000E+00 0.0000E+00 0.0000E+00 0.0000E+00 0.0000E+00
 SWT_Normal           0.0000E+00 0.0000E+00 0.0000E+00 0.0000E+00 0.0000E+00 0.0000E+00
 TRANSPORT ( IN )                        
 Start                3.3924E+01 0.0000E+00 3.3034E+01 2.0018E+02 3.4497E+01 0.0000E+00
 Upstream pipe        2.7321E+01 0.0000E+00 2.5532E+01 1.7600E+02 2.8485E+01 0.0000E+00
 Near pipe            2.1505E+01 0.0000E+00 2.0019E+01 1.3954E+02 2.2473E+01 0.0000E+00
 Far field            0.0000E+00 0.0000E+00 0.0000E+00 0.0000E+00 0.0000E+00 0.0000E+00
 SWT_Normal           3.6000E+01 0.0000E+00 3.6000E+01 1.9800E+02 3.6000E+01 0.0000E+00
 TRANSPORT ( OUT )                       
 Start                3.0414E+01 0.0000E+00 2.8755E+01 1.9150E+02 3.1491E+01 0.0000E+00
 Upstream pipe        2.4391E+01 0.0000E+00 2.2721E+01 1.5808E+02 2.5479E+01 0.0000E+00
 Near pipe            1.8627E+01 0.0000E+00 1.7339E+01 1.2089E+02 1.9467E+01 0.0000E+00
 Far field            0.0000E+00 0.0000E+00 0.0000E+00 0.0000E+00 0.0000E+00 0.0000E+00
 SWT_Normal           0.0000E+00 0.0000E+00 0.0000E+00 0.0000E+00 0.0000E+00 0.0000E+00
 
1
                                             Water quality calculation Sobek-WQ      
                                                                                     
                                                                                     
                                             T0: 2010.01.01 00:00:00  (scu=       1s)
   8.33% Completed


 DUMP OF INTERMEDIATE RESULTS IN SELECTED SEGMENTS
  TIME =   0D 12H  0M  0S .
 
 TOTAL MASS IN SYSTEM 5.8413E+03 0.0000E+00 5.3988E+03 3.8333E+04 6.1297E+03 0.0000E+00
 CHANGES BY PROCESSES-2.4310E+01 0.0000E+00-5.8793E+01 2.6972E+02 0.0000E+00 0.0000E+00
 CHANGES BY LOADS     0.0000E+00 0.0000E+00 0.0000E+00 0.0000E+00 0.0000E+00 0.0000E+00
 BOUNDARY INFLOWS     3.6000E+01 0.0000E+00 3.6000E+01 1.9800E+02 3.6000E+01 0.0000E+00
 BOUNDARY OUTFLOWS    0.0000E+00 0.0000E+00 0.0000E+00 0.0000E+00 0.0000E+00 0.0000E+00
                      NH4        CBOD5      CBOD5_2    OXY        Continuity SOD        
                                                                                        
 CONCENTRATION                           
 Start                9.6286E-01 0.0000E+00 9.0624E-01 6.1114E+00 1.0000E+00 0.0000E+00
 Upstream pipe        9.5192E-01 0.0000E+00 8.7894E-01 6.2617E+00 1.0000E+00 0.0000E+00
 Near pipe            9.5123E-01 0.0000E+00 8.7722E-01 6.2705E+00 1.0000E+00 0.0000E+00
 Far field            9.5121E-01 0.0000E+00 8.7505E-01 6.2918E+00 1.0000E+00 0.0000E+00
 SWT_Normal           9.5294E-01 0.0000E+00 8.8077E-01 6.2537E+00 1.0000E+00 0.0000E+00
 MASS                                    
 Start                3.2348E+02 0.0000E+00 3.0445E+02 2.0532E+03 3.3595E+02 0.0000E+00
 Upstream pipe        3.1980E+02 0.0000E+00 2.9528E+02 2.1036E+03 3.3595E+02 0.0000E+00
 Near pipe            3.1957E+02 0.0000E+00 2.9470E+02 2.1066E+03 3.3595E+02 0.0000E+00
 Far field            2.8525E+02 0.0000E+00 2.6241E+02 1.8868E+03 2.9988E+02 0.0000E+00
 SWT_Normal           5.8413E+03 0.0000E+00 5.3988E+03 3.8333E+04 6.1297E+03 0.0000E+00
 PROCESSES                               
 Start               -1.3424E+00 0.0000E+00-3.2603E+00 1.7127E+01 0.0000E+00 0.0000E+00
 Upstream pipe       -1.3286E+00 0.0000E+00-3.1713E+00 1.4169E+01 0.0000E+00 0.0000E+00
 Near pipe           -1.3278E+00 0.0000E+00-3.1662E+00 1.4010E+01 0.0000E+00 0.0000E+00
 Far field           -1.1914E+00 0.0000E+00-2.9350E+00 1.3265E+01 0.0000E+00 0.0000E+00
 SWT_Normal          -2.4310E+01 0.0000E+00-5.8793E+01 2.6972E+02 0.0000E+00 0.0000E+00
 LOADS ( IN )                            
 Start                0.0000E+00 0.0000E+00 0.0000E+00 0.0000E+00 0.0000E+00 0.0000E+00
 Upstream pipe        0.0000E+00 0.0000E+00 0.0000E+00 0.0000E+00 0.0000E+00 0.0000E+00
 Near pipe            0.0000E+00 0.0000E+00 0.0000E+00 0.0000E+00 0.0000E+00 0.0000E+00
 Far field            0.0000E+00 0.0000E+00 0.0000E+00 0.0000E+00 0.0000E+00 0.0000E+00
 SWT_Normal           0.0000E+00 0.0000E+00 0.0000E+00 0.0000E+00 0.0000E+00 0.0000E+00
 LOADS ( OUT )                           
 Start                0.0000E+00 0.0000E+00 0.0000E+00 0.0000E+00 0.0000E+00 0.0000E+00
 Upstream pipe        0.0000E+00 0.0000E+00 0.0000E+00 0.0000E+00 0.0000E+00 0.0000E+00
 Near pipe            0.0000E+00 0.0000E+00 0.0000E+00 0.0000E+00 0.0000E+00 0.0000E+00
 Far field            0.0000E+00 0.0000E+00 0.0000E+00 0.0000E+00 0.0000E+00 0.0000E+00
 SWT_Normal           0.0000E+00 0.0000E+00 0.0000E+00 0.0000E+00 0.0000E+00 0.0000E+00
 TRANSPORT ( IN )                        
 Start                3.3908E+01 0.0000E+00 3.3000E+01 2.0033E+02 3.4497E+01 0.0000E+00
 Upstream pipe        2.7227E+01 0.0000E+00 2.5309E+01 1.7701E+02 2.8485E+01 0.0000E+00
 Near pipe            2.1416E+01 0.0000E+00 1.9807E+01 1.4051E+02 2.2473E+01 0.0000E+00
 Far field            0.0000E+00 0.0000E+00 0.0000E+00 0.0000E+00 0.0000E+00 0.0000E+00
 SWT_Normal           3.6000E+01 0.0000E+00 3.6000E+01 1.9800E+02 3.6000E+01 0.0000E+00
 TRANSPORT ( OUT )                       
 Start                3.0348E+01 0.0000E+00 2.8600E+01 1.9219E+02 3.1491E+01 0.0000E+00
 Upstream pipe        2.4294E+01 0.0000E+00 2.2489E+01 1.5913E+02 2.5479E+01 0.0000E+00
 Near pipe            1.8550E+01 0.0000E+00 1.7153E+01 1.2173E+02 1.9467E+01 0.0000E+00
 Far field            0.0000E+00 0.0000E+00 0.0000E+00 0.0000E+00 0.0000E+00 0.0000E+00
 SWT_Normal           0.0000E+00 0.0000E+00 0.0000E+00 0.0000E+00 0.0000E+00 0.0000E+00
 
   9.03% Completed


 DUMP OF INTERMEDIATE RESULTS IN SELECTED SEGMENTS
  TIME =   0D 13H  0M  0S .
 
 TOTAL MASS IN SYSTEM 5.8529E+03 0.0000E+00 5.3764E+03 3.8786E+04 6.1657E+03 0.0000E+00
 CHANGES BY PROCESSES-2.4359E+01 0.0000E+00-5.8434E+01 2.5482E+02 0.0000E+00 0.0000E+00
 CHANGES BY LOADS     0.0000E+00 0.0000E+00 0.0000E+00 0.0000E+00 0.0000E+00 0.0000E+00
 BOUNDARY INFLOWS     3.6000E+01 0.0000E+00 3.6000E+01 1.9800E+02 3.6000E+01 0.0000E+00
 BOUNDARY OUTFLOWS    0.0000E+00 0.0000E+00 0.0000E+00 0.0000E+00 0.0000E+00 0.0000E+00
                      NH4        CBOD5      CBOD5_2    OXY        Continuity SOD        
                                                                                        
 CONCENTRATION                           
 Start                9.6098E-01 0.0000E+00 9.0189E-01 6.1292E+00 1.0000E+00 0.0000E+00
 Upstream pipe        9.4821E-01 0.0000E+00 8.7018E-01 6.2983E+00 1.0000E+00 0.0000E+00
 Near pipe            9.4728E-01 0.0000E+00 8.6789E-01 6.3095E+00 1.0000E+00 0.0000E+00
 Far field            9.4726E-01 0.0000E+00 8.6537E-01 6.3332E+00 1.0000E+00 0.0000E+00
 SWT_Normal           9.4927E-01 0.0000E+00 8.7198E-01 6.2906E+00 1.0000E+00 0.0000E+00
 MASS                                    
 Start                3.2573E+02 0.0000E+00 3.0570E+02 2.0776E+03 3.3896E+02 0.0000E+00
 Upstream pipe        3.2140E+02 0.0000E+00 2.9495E+02 2.1349E+03 3.3896E+02 0.0000E+00
 Near pipe            3.2109E+02 0.0000E+00 2.9418E+02 2.1387E+03 3.3896E+02 0.0000E+00
 Far field            2.8406E+02 0.0000E+00 2.5951E+02 1.8992E+03 2.9988E+02 0.0000E+00
 SWT_Normal           5.8529E+03 0.0000E+00 5.3764E+03 3.8786E+04 6.1657E+03 0.0000E+00
 PROCESSES                               
 Start               -1.3517E+00 0.0000E+00-3.2638E+00 1.6756E+01 0.0000E+00 0.0000E+00
 Upstream pipe       -1.3353E+00 0.0000E+00-3.1587E+00 1.3387E+01 0.0000E+00 0.0000E+00
 Near pipe           -1.3342E+00 0.0000E+00-3.1517E+00 1.3179E+01 0.0000E+00 0.0000E+00
 Far field           -1.1865E+00 0.0000E+00-2.9025E+00 1.2404E+01 0.0000E+00 0.0000E+00
 SWT_Normal          -2.4359E+01 0.0000E+00-5.8434E+01 2.5482E+02 0.0000E+00 0.0000E+00
 LOADS ( IN )                            
 Start                0.0000E+00 0.0000E+00 0.0000E+00 0.0000E+00 0.0000E+00 0.0000E+00
 Upstream pipe        0.0000E+00 0.0000E+00 0.0000E+00 0.0000E+00 0.0000E+00 0.0000E+00
 Near pipe            0.0000E+00 0.0000E+00 0.0000E+00 0.0000E+00 0.0000E+00 0.0000E+00
 Far field            0.0000E+00 0.0000E+00 0.0000E+00 0.0000E+00 0.0000E+00 0.0000E+00
 SWT_Normal           0.0000E+00 0.0000E+00 0.0000E+00 0.0000E+00 0.0000E+00 0.0000E+00
 LOADS ( OUT )                           
 Start                0.0000E+00 0.0000E+00 0.0000E+00 0.0000E+00 0.0000E+00 0.0000E+00
 Upstream pipe        0.0000E+00 0.0000E+00 0.0000E+00 0.0000E+00 0.0000E+00 0.0000E+00
 Near pipe            0.0000E+00 0.0000E+00 0.0000E+00 0.0000E+00 0.0000E+00 0.0000E+00
 Far field            0.0000E+00 0.0000E+00 0.0000E+00 0.0000E+00 0.0000E+00 0.0000E+00
 SWT_Normal           0.0000E+00 0.0000E+00 0.0000E+00 0.0000E+00 0.0000E+00 0.0000E+00
 TRANSPORT ( IN )                        
 Start                3.3895E+01 0.0000E+00 3.2971E+01 2.0044E+02 3.4497E+01 0.0000E+00
 Upstream pipe        2.7136E+01 0.0000E+00 2.5096E+01 1.7792E+02 2.8485E+01 0.0000E+00
 Near pipe            2.1328E+01 0.0000E+00 1.9598E+01 1.4140E+02 2.2473E+01 0.0000E+00
 Far field            0.0000E+00 0.0000E+00 0.0000E+00 0.0000E+00 0.0000E+00 0.0000E+00
 SWT_Normal           3.6000E+01 0.0000E+00 3.6000E+01 1.9800E+02 3.6000E+01 0.0000E+00
 TRANSPORT ( OUT )                       
 Start                3.0287E+01 0.0000E+00 2.8457E+01 1.9279E+02 3.1491E+01 0.0000E+00
 Upstream pipe        2.4199E+01 0.0000E+00 2.2264E+01 1.6009E+02 2.5479E+01 0.0000E+00
 Near pipe            1.8473E+01 0.0000E+00 1.6971E+01 1.2252E+02 1.9467E+01 0.0000E+00
 Far field            0.0000E+00 0.0000E+00 0.0000E+00 0.0000E+00 0.0000E+00 0.0000E+00
 SWT_Normal           0.0000E+00 0.0000E+00 0.0000E+00 0.0000E+00 0.0000E+00 0.0000E+00
 
   9.72% Completed


 DUMP OF INTERMEDIATE RESULTS IN SELECTED SEGMENTS
  TIME =   0D 14H  0M  0S .
 
 TOTAL MASS IN SYSTEM 5.8645E+03 0.0000E+00 5.3543E+03 3.9225E+04 6.2017E+03 0.0000E+00
 CHANGES BY PROCESSES-2.4407E+01 0.0000E+00-5.8081E+01 2.4097E+02 0.0000E+00 0.0000E+00
 CHANGES BY LOADS     0.0000E+00 0.0000E+00 0.0000E+00 0.0000E+00 0.0000E+00 0.0000E+00
 BOUNDARY INFLOWS     3.6000E+01 0.0000E+00 3.6000E+01 1.9800E+02 3.6000E+01 0.0000E+00
 BOUNDARY OUTFLOWS    0.0000E+00 0.0000E+00 0.0000E+00 0.0000E+00 0.0000E+00 0.0000E+00
                      NH4        CBOD5      CBOD5_2    OXY        Continuity SOD        
                                                                                        
 CONCENTRATION                           
 Start                9.5924E-01 0.0000E+00 8.9791E-01 6.1446E+00 1.0000E+00 0.0000E+00
 Upstream pipe        9.4456E-01 0.0000E+00 8.6166E-01 6.3319E+00 1.0000E+00 0.0000E+00
 Near pipe            9.4335E-01 0.0000E+00 8.5870E-01 6.3458E+00 1.0000E+00 0.0000E+00
 Far field            9.4332E-01 0.0000E+00 8.5580E-01 6.3719E+00 1.0000E+00 0.0000E+00
 SWT_Normal           9.4563E-01 0.0000E+00 8.6336E-01 6.3249E+00 1.0000E+00 0.0000E+00
 MASS                                    
 Start                3.2802E+02 0.0000E+00 3.0705E+02 2.1012E+03 3.4196E+02 0.0000E+00
 Upstream pipe        3.2300E+02 0.0000E+00 2.9466E+02 2.1653E+03 3.4196E+02 0.0000E+00
 Near pipe            3.2259E+02 0.0000E+00 2.9364E+02 2.1700E+03 3.4196E+02 0.0000E+00
 Far field            2.8288E+02 0.0000E+00 2.5664E+02 1.9108E+03 2.9988E+02 0.0000E+00
 SWT_Normal           5.8645E+03 0.0000E+00 5.3543E+03 3.9225E+04 6.2017E+03 0.0000E+00
 PROCESSES                               
 Start               -1.3612E+00 0.0000E+00-3.2685E+00 1.6441E+01 0.0000E+00 0.0000E+00
 Upstream pipe       -1.3420E+00 0.0000E+00-3.1465E+00 1.2666E+01 0.0000E+00 0.0000E+00
 Near pipe           -1.3405E+00 0.0000E+00-3.1372E+00 1.2403E+01 0.0000E+00 0.0000E+00
 Far field           -1.1815E+00 0.0000E+00-2.8704E+00 1.1601E+01 0.0000E+00 0.0000E+00
 SWT_Normal          -2.4407E+01 0.0000E+00-5.8081E+01 2.4097E+02 0.0000E+00 0.0000E+00
 LOADS ( IN )                            
 Start                0.0000E+00 0.0000E+00 0.0000E+00 0.0000E+00 0.0000E+00 0.0000E+00
 Upstream pipe        0.0000E+00 0.0000E+00 0.0000E+00 0.0000E+00 0.0000E+00 0.0000E+00
 Near pipe            0.0000E+00 0.0000E+00 0.0000E+00 0.0000E+00 0.0000E+00 0.0000E+00
 Far field            0.0000E+00 0.0000E+00 0.0000E+00 0.0000E+00 0.0000E+00 0.0000E+00
 SWT_Normal           0.0000E+00 0.0000E+00 0.0000E+00 0.0000E+00 0.0000E+00 0.0000E+00
 LOADS ( OUT )                           
 Start                0.0000E+00 0.0000E+00 0.0000E+00 0.0000E+00 0.0000E+00 0.0000E+00
 Upstream pipe        0.0000E+00 0.0000E+00 0.0000E+00 0.0000E+00 0.0000E+00 0.0000E+00
 Near pipe            0.0000E+00 0.0000E+00 0.0000E+00 0.0000E+00 0.0000E+00 0.0000E+00
 Far field            0.0000E+00 0.0000E+00 0.0000E+00 0.0000E+00 0.0000E+00 0.0000E+00
 SWT_Normal           0.0000E+00 0.0000E+00 0.0000E+00 0.0000E+00 0.0000E+00 0.0000E+00
 TRANSPORT ( IN )                        
 Start                3.3883E+01 0.0000E+00 3.2946E+01 2.0053E+02 3.4497E+01 0.0000E+00
 Upstream pipe        2.7049E+01 0.0000E+00 2.4893E+01 1.7873E+02 2.8485E+01 0.0000E+00
 Near pipe            2.1241E+01 0.0000E+00 1.9393E+01 1.4223E+02 2.2473E+01 0.0000E+00
 Far field            0.0000E+00 0.0000E+00 0.0000E+00 0.0000E+00 0.0000E+00 0.0000E+00
 SWT_Normal           3.6000E+01 0.0000E+00 3.6000E+01 1.9800E+02 3.6000E+01 0.0000E+00
 TRANSPORT ( OUT )                       
 Start                3.0230E+01 0.0000E+00 2.8327E+01 1.9330E+02 3.1491E+01 0.0000E+00
 Upstream pipe        2.4105E+01 0.0000E+00 2.2044E+01 1.6098E+02 2.5479E+01 0.0000E+00
 Near pipe            1.8396E+01 0.0000E+00 1.6791E+01 1.2324E+02 1.9467E+01 0.0000E+00
 Far field            0.0000E+00 0.0000E+00 0.0000E+00 0.0000E+00 0.0000E+00 0.0000E+00
 SWT_Normal           0.0000E+00 0.0000E+00 0.0000E+00 0.0000E+00 0.0000E+00 0.0000E+00
 
1
                                             Water quality calculation Sobek-WQ      
                                                                                     
                                                                                     
                                             T0: 2010.01.01 00:00:00  (scu=       1s)
  10.42% Completed


 DUMP OF INTERMEDIATE RESULTS IN SELECTED SEGMENTS
  TIME =   0D 15H  0M  0S .
 
 TOTAL MASS IN SYSTEM 5.8760E+03 0.0000E+00 5.3326E+03 3.9651E+04 6.2377E+03 0.0000E+00
 CHANGES BY PROCESSES-2.4455E+01 0.0000E+00-5.7733E+01 2.2809E+02 0.0000E+00 0.0000E+00
 CHANGES BY LOADS     0.0000E+00 0.0000E+00 0.0000E+00 0.0000E+00 0.0000E+00 0.0000E+00
 BOUNDARY INFLOWS     3.6000E+01 0.0000E+00 3.6000E+01 1.9800E+02 3.6000E+01 0.0000E+00
 BOUNDARY OUTFLOWS    0.0000E+00 0.0000E+00 0.0000E+00 0.0000E+00 0.0000E+00 0.0000E+00
                      NH4        CBOD5      CBOD5_2    OXY        Continuity SOD        
                                                                                        
 CONCENTRATION                           
 Start                9.5762E-01 0.0000E+00 8.9426E-01 6.1578E+00 1.0000E+00 0.0000E+00
 Upstream pipe        9.4098E-01 0.0000E+00 8.5338E-01 6.3627E+00 1.0000E+00 0.0000E+00
 Near pipe            9.3945E-01 0.0000E+00 8.4964E-01 6.3797E+00 1.0000E+00 0.0000E+00
 Far field            9.3939E-01 0.0000E+00 8.4634E-01 6.4081E+00 1.0000E+00 0.0000E+00
 SWT_Normal           9.4202E-01 0.0000E+00 8.5490E-01 6.3567E+00 1.0000E+00 0.0000E+00
 MASS                                    
 Start                3.3035E+02 0.0000E+00 3.0850E+02 2.1243E+03 3.4497E+02 0.0000E+00
 Upstream pipe        3.2461E+02 0.0000E+00 2.9439E+02 2.1949E+03 3.4497E+02 0.0000E+00
 Near pipe            3.2408E+02 0.0000E+00 2.9310E+02 2.2008E+03 3.4497E+02 0.0000E+00
 Far field            2.8171E+02 0.0000E+00 2.5380E+02 1.9216E+03 2.9988E+02 0.0000E+00
 SWT_Normal           5.8760E+03 0.0000E+00 5.3326E+03 3.9651E+04 6.2377E+03 0.0000E+00
 PROCESSES                               
 Start               -1.3708E+00 0.0000E+00-3.2742E+00 1.6172E+01 0.0000E+00 0.0000E+00
 Upstream pipe       -1.3486E+00 0.0000E+00-3.1347E+00 1.2001E+01 0.0000E+00 0.0000E+00
 Near pipe           -1.3467E+00 0.0000E+00-3.1228E+00 1.1676E+01 0.0000E+00 0.0000E+00
 Far field           -1.1766E+00 0.0000E+00-2.8387E+00 1.0851E+01 0.0000E+00 0.0000E+00
 SWT_Normal          -2.4455E+01 0.0000E+00-5.7733E+01 2.2809E+02 0.0000E+00 0.0000E+00
 LOADS ( IN )                            
 Start                0.0000E+00 0.0000E+00 0.0000E+00 0.0000E+00 0.0000E+00 0.0000E+00
 Upstream pipe        0.0000E+00 0.0000E+00 0.0000E+00 0.0000E+00 0.0000E+00 0.0000E+00
 Near pipe            0.0000E+00 0.0000E+00 0.0000E+00 0.0000E+00 0.0000E+00 0.0000E+00
 Far field            0.0000E+00 0.0000E+00 0.0000E+00 0.0000E+00 0.0000E+00 0.0000E+00
 SWT_Normal           0.0000E+00 0.0000E+00 0.0000E+00 0.0000E+00 0.0000E+00 0.0000E+00
 LOADS ( OUT )                           
 Start                0.0000E+00 0.0000E+00 0.0000E+00 0.0000E+00 0.0000E+00 0.0000E+00
 Upstream pipe        0.0000E+00 0.0000E+00 0.0000E+00 0.0000E+00 0.0000E+00 0.0000E+00
 Near pipe            0.0000E+00 0.0000E+00 0.0000E+00 0.0000E+00 0.0000E+00 0.0000E+00
 Far field            0.0000E+00 0.0000E+00 0.0000E+00 0.0000E+00 0.0000E+00 0.0000E+00
 SWT_Normal           0.0000E+00 0.0000E+00 0.0000E+00 0.0000E+00 0.0000E+00 0.0000E+00
 TRANSPORT ( IN )                        
 Start                3.3873E+01 0.0000E+00 3.2925E+01 2.0061E+02 3.4497E+01 0.0000E+00
 Upstream pipe        2.6966E+01 0.0000E+00 2.4700E+01 1.7946E+02 2.8485E+01 0.0000E+00
 Near pipe            2.1154E+01 0.0000E+00 1.9192E+01 1.4300E+02 2.2473E+01 0.0000E+00
 Far field            0.0000E+00 0.0000E+00 0.0000E+00 0.0000E+00 0.0000E+00 0.0000E+00
 SWT_Normal           3.6000E+01 0.0000E+00 3.6000E+01 1.9800E+02 3.6000E+01 0.0000E+00
 TRANSPORT ( OUT )                       
 Start                3.0177E+01 0.0000E+00 2.8208E+01 1.9375E+02 3.1491E+01 0.0000E+00
 Upstream pipe        2.4013E+01 0.0000E+00 2.1831E+01 1.6179E+02 2.5479E+01 0.0000E+00
 Near pipe            1.8320E+01 0.0000E+00 1.6613E+01 1.2392E+02 1.9467E+01 0.0000E+00
 Far field            0.0000E+00 0.0000E+00 0.0000E+00 0.0000E+00 0.0000E+00 0.0000E+00
 SWT_Normal           0.0000E+00 0.0000E+00 0.0000E+00 0.0000E+00 0.0000E+00 0.0000E+00
 
  11.11% Completed


 DUMP OF INTERMEDIATE RESULTS IN SELECTED SEGMENTS
  TIME =   0D 16H  0M  0S .
 
 TOTAL MASS IN SYSTEM 5.8875E+03 0.0000E+00 5.3112E+03 4.0065E+04 6.2737E+03 0.0000E+00
 CHANGES BY PROCESSES-2.4504E+01 0.0000E+00-5.7391E+01 2.1611E+02 0.0000E+00 0.0000E+00
 CHANGES BY LOADS     0.0000E+00 0.0000E+00 0.0000E+00 0.0000E+00 0.0000E+00 0.0000E+00
 BOUNDARY INFLOWS     3.6000E+01 0.0000E+00 3.6000E+01 1.9800E+02 3.6000E+01 0.0000E+00
 BOUNDARY OUTFLOWS    0.0000E+00 0.0000E+00 0.0000E+00 0.0000E+00 0.0000E+00 0.0000E+00
                      NH4        CBOD5      CBOD5_2    OXY        Continuity SOD        
                                                                                        
 CONCENTRATION                           
 Start                9.5611E-01 0.0000E+00 8.9092E-01 6.1692E+00 1.0000E+00 0.0000E+00
 Upstream pipe        9.3747E-01 0.0000E+00 8.4535E-01 6.3910E+00 1.0000E+00 0.0000E+00
 Near pipe            9.3556E-01 0.0000E+00 8.4071E-01 6.4112E+00 1.0000E+00 0.0000E+00
 Far field            9.3549E-01 0.0000E+00 8.3697E-01 6.4419E+00 1.0000E+00 0.0000E+00
 SWT_Normal           9.3845E-01 0.0000E+00 8.4658E-01 6.3862E+00 1.0000E+00 0.0000E+00
 MASS                                    
 Start                3.3270E+02 0.0000E+00 3.1002E+02 2.1467E+03 3.4798E+02 0.0000E+00
 Upstream pipe        3.2622E+02 0.0000E+00 2.9416E+02 2.2239E+03 3.4798E+02 0.0000E+00
 Near pipe            3.2555E+02 0.0000E+00 2.9255E+02 2.2310E+03 3.4798E+02 0.0000E+00
 Far field            2.8053E+02 0.0000E+00 2.5099E+02 1.9318E+03 2.9988E+02 0.0000E+00
 SWT_Normal           5.8875E+03 0.0000E+00 5.3112E+03 4.0065E+04 6.2737E+03 0.0000E+00
 PROCESSES                               
 Start               -1.3805E+00 0.0000E+00-3.2809E+00 1.5944E+01 0.0000E+00 0.0000E+00
 Upstream pipe       -1.3553E+00 0.0000E+00-3.1235E+00 1.1389E+01 0.0000E+00 0.0000E+00
 Near pipe           -1.3529E+00 0.0000E+00-3.1084E+00 1.0997E+01 0.0000E+00 0.0000E+00
 Far field           -1.1717E+00 0.0000E+00-2.8073E+00 1.0152E+01 0.0000E+00 0.0000E+00
 SWT_Normal          -2.4504E+01 0.0000E+00-5.7391E+01 2.1611E+02 0.0000E+00 0.0000E+00
 LOADS ( IN )                            
 Start                0.0000E+00 0.0000E+00 0.0000E+00 0.0000E+00 0.0000E+00 0.0000E+00
 Upstream pipe        0.0000E+00 0.0000E+00 0.0000E+00 0.0000E+00 0.0000E+00 0.0000E+00
 Near pipe            0.0000E+00 0.0000E+00 0.0000E+00 0.0000E+00 0.0000E+00 0.0000E+00
 Far field            0.0000E+00 0.0000E+00 0.0000E+00 0.0000E+00 0.0000E+00 0.0000E+00
 SWT_Normal           0.0000E+00 0.0000E+00 0.0000E+00 0.0000E+00 0.0000E+00 0.0000E+00
 LOADS ( OUT )                           
 Start                0.0000E+00 0.0000E+00 0.0000E+00 0.0000E+00 0.0000E+00 0.0000E+00
 Upstream pipe        0.0000E+00 0.0000E+00 0.0000E+00 0.0000E+00 0.0000E+00 0.0000E+00
 Near pipe            0.0000E+00 0.0000E+00 0.0000E+00 0.0000E+00 0.0000E+00 0.0000E+00
 Far field            0.0000E+00 0.0000E+00 0.0000E+00 0.0000E+00 0.0000E+00 0.0000E+00
 SWT_Normal           0.0000E+00 0.0000E+00 0.0000E+00 0.0000E+00 0.0000E+00 0.0000E+00
 TRANSPORT ( IN )                        
 Start                3.3863E+01 0.0000E+00 3.2905E+01 2.0067E+02 3.4497E+01 0.0000E+00
 Upstream pipe        2.6886E+01 0.0000E+00 2.4518E+01 1.8011E+02 2.8485E+01 0.0000E+00
 Near pipe            2.1068E+01 0.0000E+00 1.8994E+01 1.4371E+02 2.2473E+01 0.0000E+00
 Far field            0.0000E+00 0.0000E+00 0.0000E+00 0.0000E+00 0.0000E+00 0.0000E+00
 SWT_Normal           3.6000E+01 0.0000E+00 3.6000E+01 1.9800E+02 3.6000E+01 0.0000E+00
 TRANSPORT ( OUT )                       
 Start                3.0128E+01 0.0000E+00 2.8099E+01 1.9413E+02 3.1491E+01 0.0000E+00
 Upstream pipe        2.3923E+01 0.0000E+00 2.1623E+01 1.6254E+02 2.5479E+01 0.0000E+00
 Near pipe            1.8244E+01 0.0000E+00 1.6438E+01 1.2456E+02 1.9467E+01 0.0000E+00
 Far field            0.0000E+00 0.0000E+00 0.0000E+00 0.0000E+00 0.0000E+00 0.0000E+00
 SWT_Normal           0.0000E+00 0.0000E+00 0.0000E+00 0.0000E+00 0.0000E+00 0.0000E+00
 
  11.81% Completed


 DUMP OF INTERMEDIATE RESULTS IN SELECTED SEGMENTS
  TIME =   0D 17H  0M  0S .
 
 TOTAL MASS IN SYSTEM 5.8990E+03 0.0000E+00 5.2902E+03 4.0468E+04 6.3097E+03 0.0000E+00
 CHANGES BY PROCESSES-2.4551E+01 0.0000E+00-5.7053E+01 2.0497E+02 0.0000E+00 0.0000E+00
 CHANGES BY LOADS     0.0000E+00 0.0000E+00 0.0000E+00 0.0000E+00 0.0000E+00 0.0000E+00
 BOUNDARY INFLOWS     3.6000E+01 0.0000E+00 3.6000E+01 1.9800E+02 3.6000E+01 0.0000E+00
 BOUNDARY OUTFLOWS    0.0000E+00 0.0000E+00 0.0000E+00 0.0000E+00 0.0000E+00 0.0000E+00
                      NH4        CBOD5      CBOD5_2    OXY        Continuity SOD        
                                                                                        
 CONCENTRATION                           
 Start                9.5470E-01 0.0000E+00 8.8785E-01 6.1791E+00 1.0000E+00 0.0000E+00
 Upstream pipe        9.3403E-01 0.0000E+00 8.3757E-01 6.4169E+00 1.0000E+00 0.0000E+00
 Near pipe            9.3169E-01 0.0000E+00 8.3192E-01 6.4406E+00 1.0000E+00 0.0000E+00
 Far field            9.3159E-01 0.0000E+00 8.2772E-01 6.4736E+00 1.0000E+00 0.0000E+00
 SWT_Normal           9.3491E-01 0.0000E+00 8.3841E-01 6.4136E+00 1.0000E+00 0.0000E+00
 MASS                                    
 Start                3.3508E+02 0.0000E+00 3.1162E+02 2.1688E+03 3.5098E+02 0.0000E+00
 Upstream pipe        3.2783E+02 0.0000E+00 2.9397E+02 2.2522E+03 3.5098E+02 0.0000E+00
 Near pipe            3.2701E+02 0.0000E+00 2.9199E+02 2.2605E+03 3.5098E+02 0.0000E+00
 Far field            2.7937E+02 0.0000E+00 2.4822E+02 1.9413E+03 2.9988E+02 0.0000E+00
 SWT_Normal           5.8990E+03 0.0000E+00 5.2902E+03 4.0468E+04 6.3097E+03 0.0000E+00
 PROCESSES                               
 Start               -1.3904E+00 0.0000E+00-3.2885E+00 1.5749E+01 0.0000E+00 0.0000E+00
 Upstream pipe       -1.3620E+00 0.0000E+00-3.1128E+00 1.0827E+01 0.0000E+00 0.0000E+00
 Near pipe           -1.3590E+00 0.0000E+00-3.0941E+00 1.0362E+01 0.0000E+00 0.0000E+00
 Far field           -1.1669E+00 0.0000E+00-2.7762E+00 9.5000E+00 0.0000E+00 0.0000E+00
 SWT_Normal          -2.4551E+01 0.0000E+00-5.7053E+01 2.0497E+02 0.0000E+00 0.0000E+00
 LOADS ( IN )                            
 Start                0.0000E+00 0.0000E+00 0.0000E+00 0.0000E+00 0.0000E+00 0.0000E+00
 Upstream pipe        0.0000E+00 0.0000E+00 0.0000E+00 0.0000E+00 0.0000E+00 0.0000E+00
 Near pipe            0.0000E+00 0.0000E+00 0.0000E+00 0.0000E+00 0.0000E+00 0.0000E+00
 Far field            0.0000E+00 0.0000E+00 0.0000E+00 0.0000E+00 0.0000E+00 0.0000E+00
 SWT_Normal           0.0000E+00 0.0000E+00 0.0000E+00 0.0000E+00 0.0000E+00 0.0000E+00
 LOADS ( OUT )                           
 Start                0.0000E+00 0.0000E+00 0.0000E+00 0.0000E+00 0.0000E+00 0.0000E+00
 Upstream pipe        0.0000E+00 0.0000E+00 0.0000E+00 0.0000E+00 0.0000E+00 0.0000E+00
 Near pipe            0.0000E+00 0.0000E+00 0.0000E+00 0.0000E+00 0.0000E+00 0.0000E+00
 Far field            0.0000E+00 0.0000E+00 0.0000E+00 0.0000E+00 0.0000E+00 0.0000E+00
 SWT_Normal           0.0000E+00 0.0000E+00 0.0000E+00 0.0000E+00 0.0000E+00 0.0000E+00
 TRANSPORT ( IN )                        
 Start                3.3854E+01 0.0000E+00 3.2888E+01 2.0072E+02 3.4497E+01 0.0000E+00
 Upstream pipe        2.6809E+01 0.0000E+00 2.4344E+01 1.8070E+02 2.8485E+01 0.0000E+00
 Near pipe            2.0983E+01 0.0000E+00 1.8800E+01 1.4438E+02 2.2473E+01 0.0000E+00
 Far field            0.0000E+00 0.0000E+00 0.0000E+00 0.0000E+00 0.0000E+00 0.0000E+00
 SWT_Normal           3.6000E+01 0.0000E+00 3.6000E+01 1.9800E+02 3.6000E+01 0.0000E+00
 TRANSPORT ( OUT )                       
 Start                3.0083E+01 0.0000E+00 2.7999E+01 1.9446E+02 3.1491E+01 0.0000E+00
 Upstream pipe        2.3835E+01 0.0000E+00 2.1423E+01 1.6323E+02 2.5479E+01 0.0000E+00
 Near pipe            1.8169E+01 0.0000E+00 1.6266E+01 1.2515E+02 1.9467E+01 0.0000E+00
 Far field            0.0000E+00 0.0000E+00 0.0000E+00 0.0000E+00 0.0000E+00 0.0000E+00
 SWT_Normal           0.0000E+00 0.0000E+00 0.0000E+00 0.0000E+00 0.0000E+00 0.0000E+00
 
1
                                             Water quality calculation Sobek-WQ      
                                                                                     
                                                                                     
                                             T0: 2010.01.01 00:00:00  (scu=       1s)
  12.50% Completed


 DUMP OF INTERMEDIATE RESULTS IN SELECTED SEGMENTS
  TIME =   0D 18H  0M  0S .
 
 TOTAL MASS IN SYSTEM 5.9104E+03 0.0000E+00 5.2694E+03 4.0861E+04 6.3457E+03 0.0000E+00
 CHANGES BY PROCESSES-2.4599E+01 0.0000E+00-5.6721E+01 1.9460E+02 0.0000E+00 0.0000E+00
 CHANGES BY LOADS     0.0000E+00 0.0000E+00 0.0000E+00 0.0000E+00 0.0000E+00 0.0000E+00
 BOUNDARY INFLOWS     3.6000E+01 0.0000E+00 3.6000E+01 1.9800E+02 3.6000E+01 0.0000E+00
 BOUNDARY OUTFLOWS    0.0000E+00 0.0000E+00 0.0000E+00 0.0000E+00 0.0000E+00 0.0000E+00
                      NH4        CBOD5      CBOD5_2    OXY        Continuity SOD        
                                                                                        
 CONCENTRATION                           
 Start                9.5339E-01 0.0000E+00 8.8503E-01 6.1877E+00 1.0000E+00 0.0000E+00
 Upstream pipe        9.3067E-01 0.0000E+00 8.3003E-01 6.4406E+00 1.0000E+00 0.0000E+00
 Near pipe            9.2785E-01 0.0000E+00 8.2325E-01 6.4680E+00 1.0000E+00 0.0000E+00
 Far field            9.2772E-01 0.0000E+00 8.1856E-01 6.5032E+00 1.0000E+00 0.0000E+00
 SWT_Normal           9.3140E-01 0.0000E+00 8.3039E-01 6.4391E+00 1.0000E+00 0.0000E+00
 MASS                                    
 Start                3.3749E+02 0.0000E+00 3.1329E+02 2.1904E+03 3.5399E+02 0.0000E+00
 Upstream pipe        3.2945E+02 0.0000E+00 2.9382E+02 2.2799E+03 3.5399E+02 0.0000E+00
 Near pipe            3.2845E+02 0.0000E+00 2.9142E+02 2.2896E+03 3.5399E+02 0.0000E+00
 Far field            2.7820E+02 0.0000E+00 2.4547E+02 1.9502E+03 2.9988E+02 0.0000E+00
 SWT_Normal           5.9104E+03 0.0000E+00 5.2694E+03 4.0861E+04 6.3457E+03 0.0000E+00
[...]
 CHANGES BY LOADS     0.0000E+00 0.0000E+00 0.0000E+00 0.0000E+00 0.0000E+00 0.0000E+00
 BOUNDARY INFLOWS     3.6000E+01 0.0000E+00 3.6000E+01 1.9800E+02 3.6000E+01 0.0000E+00
 BOUNDARY OUTFLOWS    2.0812E+01 1.3390E+00 1.1595E+01 2.5206E+02 3.6000E+01 0.0000E+00
                      NH4        CBOD5      CBOD5_2    OXY        Continuity SOD        
                                                                                        
 CONCENTRATION                           
 Start                9.2642E-01 0.0000E+00 8.3953E-01 6.2558E+00 1.0000E+00 0.0000E+00
 Upstream pipe        8.3712E-01 0.0000E+00 6.6644E-01 6.6633E+00 1.0000E+00 0.0000E+00
 Near pipe            7.6071E-01 6.5062E-03 5.4685E-01 6.8209E+00 1.0000E+00 0.0000E+00
 Far field            5.8345E-01 4.7494E-02 3.5019E-01 6.9912E+00 1.0000E+00 0.0000E+00
 SWT_Normal           7.3648E-01 8.5016E-02 6.6550E-01 6.7324E+00 1.0000E+00 0.0000E+00
 MASS                                    
 Start                4.1667E+02 0.0000E+00 3.7759E+02 2.8136E+03 4.4976E+02 0.0000E+00
 Upstream pipe        3.7650E+02 0.0000E+00 2.9974E+02 2.9969E+03 4.4976E+02 0.0000E+00
 Near pipe            3.4214E+02 2.9262E+00 2.4595E+02 3.0677E+03 4.4976E+02 0.0000E+00
 Far field            1.7496E+02 1.4243E+01 1.0501E+02 2.0965E+03 2.9988E+02 0.0000E+00
 SWT_Normal           5.5183E+03 6.3700E+02 4.9864E+03 5.0444E+04 7.4927E+03 0.0000E+00
 PROCESSES                               
 Start               -1.7361E+00 0.0000E+00-3.7005E+00 1.4857E+01 0.0000E+00 0.0000E+00
 Upstream pipe       -1.5688E+00 0.0000E+00-2.9376E+00 5.6211E+00 0.0000E+00 0.0000E+00
 Near pipe           -1.4259E+00-7.7296E-02-2.4141E+00 2.4375E+00 0.0000E+00 0.0000E+00
 Far field           -7.2964E-01-3.4952E-01-1.1602E+00 5.8188E-01 0.0000E+00 0.0000E+00
 SWT_Normal          -2.3012E+01-1.6180E+01-5.0530E+01 7.1760E+01 0.0000E+00 0.0000E+00
 LOADS ( IN )                            
 Start                0.0000E+00 0.0000E+00 0.0000E+00 0.0000E+00 0.0000E+00 0.0000E+00
 Upstream pipe        0.0000E+00 0.0000E+00 0.0000E+00 0.0000E+00 0.0000E+00 0.0000E+00
 Near pipe            0.0000E+00 0.0000E+00 0.0000E+00 0.0000E+00 0.0000E+00 0.0000E+00
 Far field            0.0000E+00 0.0000E+00 0.0000E+00 0.0000E+00 0.0000E+00 0.0000E+00
 SWT_Normal           0.0000E+00 0.0000E+00 0.0000E+00 0.0000E+00 0.0000E+00 0.0000E+00
 LOADS ( OUT )                           
 Start                0.0000E+00 0.0000E+00 0.0000E+00 0.0000E+00 0.0000E+00 0.0000E+00
 Upstream pipe        0.0000E+00 0.0000E+00 0.0000E+00 0.0000E+00 0.0000E+00 0.0000E+00
 Near pipe            0.0000E+00 0.0000E+00 0.0000E+00 0.0000E+00 0.0000E+00 0.0000E+00
 Far field            0.0000E+00 0.0000E+00 0.0000E+00 0.0000E+00 0.0000E+00 0.0000E+00
 SWT_Normal           0.0000E+00 0.0000E+00 0.0000E+00 0.0000E+00 0.0000E+00 0.0000E+00
 TRANSPORT ( IN )                        
 Start                3.5087E+01 0.0000E+00 3.3923E+01 2.1035E+02 3.6000E+01 0.0000E+00
 Upstream pipe        3.1702E+01 0.0000E+00 2.6927E+01 2.3426E+02 3.6000E+01 0.0000E+00
 Near pipe            2.8673E+01 3.3326E-02 2.1470E+01 2.4342E+02 3.6000E+01 0.0000E+00
 Far field            2.1491E+01 2.4868E+00 1.4756E+01 2.5084E+02 3.6000E+01 0.0000E+00
 SWT_Normal           3.6000E+01 0.0000E+00 3.6000E+01 1.9800E+02 3.6000E+01 0.0000E+00
 TRANSPORT ( OUT )                       
 Start                3.3351E+01 0.0000E+00 3.0223E+01 2.2521E+02 3.6000E+01 0.0000E+00
 Upstream pipe        3.0136E+01 0.0000E+00 2.3992E+01 2.3988E+02 3.6000E+01 0.0000E+00
 Near pipe            2.7390E+01 2.4364E-01 1.9708E+01 2.4554E+02 3.6000E+01 0.0000E+00
 Far field            2.1017E+01 1.6874E+00 1.2554E+01 2.5170E+02 3.6000E+01 0.0000E+00
 SWT_Normal           2.0812E+01 1.3390E+00 1.1595E+01 2.5206E+02 3.6000E+01 0.0000E+00
 
  98.61% Completed


 DUMP OF INTERMEDIATE RESULTS IN SELECTED SEGMENTS
  TIME =   5D 22H  0M  0S .
 
 TOTAL MASS IN SYSTEM 5.5105E+03 6.1986E+02 4.9605E+03 5.0461E+04 7.4927E+03 0.0000E+00
 CHANGES BY PROCESSES-2.2979E+01-1.5746E+01-5.0283E+01 7.1463E+01 0.0000E+00 0.0000E+00
 CHANGES BY LOADS     0.0000E+00 0.0000E+00 0.0000E+00 0.0000E+00 0.0000E+00 0.0000E+00
 BOUNDARY INFLOWS     3.6000E+01 0.0000E+00 3.6000E+01 1.9800E+02 3.6000E+01 0.0000E+00
 BOUNDARY OUTFLOWS    2.0775E+01 1.3891E+00 1.1699E+01 2.5203E+02 3.6000E+01 0.0000E+00
                      NH4        CBOD5      CBOD5_2    OXY        Continuity SOD        
                                                                                        
 CONCENTRATION                           
 Start                9.2642E-01 0.0000E+00 8.3953E-01 6.2558E+00 1.0000E+00 0.0000E+00
 Upstream pipe        8.3711E-01 0.0000E+00 6.6644E-01 6.6633E+00 1.0000E+00 0.0000E+00
 Near pipe            7.6041E-01 5.9233E-03 5.4551E-01 6.8215E+00 1.0000E+00 0.0000E+00
 Far field            5.8264E-01 4.8964E-02 3.5375E-01 6.9903E+00 1.0000E+00 0.0000E+00
 SWT_Normal           7.3545E-01 8.2729E-02 6.6204E-01 6.7347E+00 1.0000E+00 0.0000E+00
 MASS                                    
 Start                4.1667E+02 0.0000E+00 3.7759E+02 2.8136E+03 4.4976E+02 0.0000E+00
 Upstream pipe        3.7650E+02 0.0000E+00 2.9974E+02 2.9969E+03 4.4976E+02 0.0000E+00
 Near pipe            3.4200E+02 2.6641E+00 2.4535E+02 3.0680E+03 4.4976E+02 0.0000E+00
 Far field            1.7472E+02 1.4683E+01 1.0608E+02 2.0963E+03 2.9988E+02 0.0000E+00
 SWT_Normal           5.5105E+03 6.1986E+02 4.9605E+03 5.0461E+04 7.4927E+03 0.0000E+00
 PROCESSES                               
 Start               -1.7361E+00 0.0000E+00-3.7005E+00 1.4857E+01 0.0000E+00 0.0000E+00
 Upstream pipe       -1.5688E+00 0.0000E+00-2.9375E+00 5.6211E+00 0.0000E+00 0.0000E+00
 Near pipe           -1.4253E+00-7.0376E-02-2.4079E+00 2.4323E+00 0.0000E+00 0.0000E+00
 Far field           -7.2859E-01-3.6067E-01-1.1719E+00 5.8987E-01 0.0000E+00 0.0000E+00
 SWT_Normal          -2.2979E+01-1.5746E+01-5.0283E+01 7.1463E+01 0.0000E+00 0.0000E+00
 LOADS ( IN )                            
 Start                0.0000E+00 0.0000E+00 0.0000E+00 0.0000E+00 0.0000E+00 0.0000E+00
 Upstream pipe        0.0000E+00 0.0000E+00 0.0000E+00 0.0000E+00 0.0000E+00 0.0000E+00
 Near pipe            0.0000E+00 0.0000E+00 0.0000E+00 0.0000E+00 0.0000E+00 0.0000E+00
 Far field            0.0000E+00 0.0000E+00 0.0000E+00 0.0000E+00 0.0000E+00 0.0000E+00
 SWT_Normal           0.0000E+00 0.0000E+00 0.0000E+00 0.0000E+00 0.0000E+00 0.0000E+00
 LOADS ( OUT )                           
 Start                0.0000E+00 0.0000E+00 0.0000E+00 0.0000E+00 0.0000E+00 0.0000E+00
 Upstream pipe        0.0000E+00 0.0000E+00 0.0000E+00 0.0000E+00 0.0000E+00 0.0000E+00
 Near pipe            0.0000E+00 0.0000E+00 0.0000E+00 0.0000E+00 0.0000E+00 0.0000E+00
 Far field            0.0000E+00 0.0000E+00 0.0000E+00 0.0000E+00 0.0000E+00 0.0000E+00
 SWT_Normal           0.0000E+00 0.0000E+00 0.0000E+00 0.0000E+00 0.0000E+00 0.0000E+00
 TRANSPORT ( IN )                        
 Start                3.5087E+01 0.0000E+00 3.3923E+01 2.1035E+02 3.6000E+01 0.0000E+00
 Upstream pipe        3.1701E+01 0.0000E+00 2.6927E+01 2.3426E+02 3.6000E+01 0.0000E+00
 Near pipe            2.8671E+01 3.0017E-02 2.1462E+01 2.4343E+02 3.6000E+01 0.0000E+00
 Far field            2.1474E+01 2.5422E+00 1.4921E+01 2.5080E+02 3.6000E+01 0.0000E+00
 SWT_Normal           3.6000E+01 0.0000E+00 3.6000E+01 1.9800E+02 3.6000E+01 0.0000E+00
 TRANSPORT ( OUT )                       
 Start                3.3351E+01 0.0000E+00 3.0223E+01 2.2521E+02 3.6000E+01 0.0000E+00
 Upstream pipe        3.0136E+01 0.0000E+00 2.3992E+01 2.3988E+02 3.6000E+01 0.0000E+00
 Near pipe            2.7379E+01 2.2182E-01 1.9658E+01 2.4556E+02 3.6000E+01 0.0000E+00
 Far field            2.0987E+01 1.7407E+00 1.2681E+01 2.5166E+02 3.6000E+01 0.0000E+00
 SWT_Normal           2.0775E+01 1.3891E+00 1.1699E+01 2.5203E+02 3.6000E+01 0.0000E+00
 
  99.31% Completed


 DUMP OF INTERMEDIATE RESULTS IN SELECTED SEGMENTS
  TIME =   5D 23H  0M  0S .
 
 TOTAL MASS IN SYSTEM 5.5028E+03 6.0310E+02 4.9346E+03 5.0478E+04 7.4927E+03 0.0000E+00
 CHANGES BY PROCESSES-2.2947E+01-1.5321E+01-5.0036E+01 7.1168E+01 0.0000E+00 0.0000E+00
 CHANGES BY LOADS     0.0000E+00 0.0000E+00 0.0000E+00 0.0000E+00 0.0000E+00 0.0000E+00
 BOUNDARY INFLOWS     3.6000E+01 0.0000E+00 3.6000E+01 1.9800E+02 3.6000E+01 0.0000E+00
 BOUNDARY OUTFLOWS    2.0741E+01 1.4387E+00 1.1808E+01 2.5201E+02 3.6000E+01 0.0000E+00
                      NH4        CBOD5      CBOD5_2    OXY        Continuity SOD        
                                                                                        
 CONCENTRATION                           
 Start                9.2642E-01 0.0000E+00 8.3953E-01 6.2558E+00 1.0000E+00 0.0000E+00
 Upstream pipe        8.3710E-01 0.0000E+00 6.6643E-01 6.6633E+00 1.0000E+00 0.0000E+00
 Near pipe            7.6014E-01 5.3920E-03 5.4427E-01 6.8221E+00 1.0000E+00 0.0000E+00
 Far field            5.8188E-01 5.0399E-02 3.5739E-01 6.9894E+00 1.0000E+00 0.0000E+00
 SWT_Normal           7.3442E-01 8.0492E-02 6.5859E-01 6.7370E+00 1.0000E+00 0.0000E+00
 MASS                                    
 Start                4.1667E+02 0.0000E+00 3.7759E+02 2.8136E+03 4.4976E+02 0.0000E+00
 Upstream pipe        3.7650E+02 0.0000E+00 2.9973E+02 2.9969E+03 4.4976E+02 0.0000E+00
 Near pipe            3.4188E+02 2.4251E+00 2.4479E+02 3.0683E+03 4.4976E+02 0.0000E+00
 Far field            1.7449E+02 1.5114E+01 1.0717E+02 2.0960E+03 2.9988E+02 0.0000E+00
 SWT_Normal           5.5028E+03 6.0311E+02 4.9346E+03 5.0478E+04 7.4927E+03 0.0000E+00
 PROCESSES                               
 Start               -1.7361E+00 0.0000E+00-3.7005E+00 1.4857E+01 0.0000E+00 0.0000E+00
 Upstream pipe       -1.5687E+00 0.0000E+00-2.9375E+00 5.6212E+00 0.0000E+00 0.0000E+00
 Near pipe           -1.4248E+00-6.4067E-02-2.4022E+00 2.4275E+00 0.0000E+00 0.0000E+00
 Far field           -7.2761E-01-3.7159E-01-1.1839E+00 5.9773E-01 0.0000E+00 0.0000E+00
 SWT_Normal          -2.2947E+01-1.5321E+01-5.0036E+01 7.1168E+01 0.0000E+00 0.0000E+00
 LOADS ( IN )                            
 Start                0.0000E+00 0.0000E+00 0.0000E+00 0.0000E+00 0.0000E+00 0.0000E+00
 Upstream pipe        0.0000E+00 0.0000E+00 0.0000E+00 0.0000E+00 0.0000E+00 0.0000E+00
 Near pipe            0.0000E+00 0.0000E+00 0.0000E+00 0.0000E+00 0.0000E+00 0.0000E+00
 Far field            0.0000E+00 0.0000E+00 0.0000E+00 0.0000E+00 0.0000E+00 0.0000E+00
 SWT_Normal           0.0000E+00 0.0000E+00 0.0000E+00 0.0000E+00 0.0000E+00 0.0000E+00
 LOADS ( OUT )                           
 Start                0.0000E+00 0.0000E+00 0.0000E+00 0.0000E+00 0.0000E+00 0.0000E+00
 Upstream pipe        0.0000E+00 0.0000E+00 0.0000E+00 0.0000E+00 0.0000E+00 0.0000E+00
 Near pipe            0.0000E+00 0.0000E+00 0.0000E+00 0.0000E+00 0.0000E+00 0.0000E+00
 Far field            0.0000E+00 0.0000E+00 0.0000E+00 0.0000E+00 0.0000E+00 0.0000E+00
 SWT_Normal           0.0000E+00 0.0000E+00 0.0000E+00 0.0000E+00 0.0000E+00 0.0000E+00
 TRANSPORT ( IN )                        
 Start                3.5087E+01 0.0000E+00 3.3923E+01 2.1035E+02 3.6000E+01 0.0000E+00
 Upstream pipe        3.1701E+01 0.0000E+00 2.6927E+01 2.3426E+02 3.6000E+01 0.0000E+00
 Near pipe            2.8669E+01 2.7037E-02 2.1454E+01 2.4343E+02 3.6000E+01 0.0000E+00
 Far field            2.1458E+01 2.5949E+00 1.5087E+01 2.5076E+02 3.6000E+01 0.0000E+00
 SWT_Normal           3.6000E+01 0.0000E+00 3.6000E+01 1.9800E+02 3.6000E+01 0.0000E+00
 TRANSPORT ( OUT )                       
 Start                3.3351E+01 0.0000E+00 3.0223E+01 2.2521E+02 3.6000E+01 0.0000E+00
 Upstream pipe        3.0136E+01 0.0000E+00 2.3992E+01 2.3988E+02 3.6000E+01 0.0000E+00
 Near pipe            2.7369E+01 2.0194E-01 1.9612E+01 2.4559E+02 3.6000E+01 0.0000E+00
 Far field            2.0959E+01 1.7929E+00 1.2811E+01 2.5163E+02 3.6000E+01 0.0000E+00
 SWT_Normal           2.0741E+01 1.4387E+00 1.1808E+01 2.5201E+02 3.6000E+01 0.0000E+00
 

 REWIND ON       UNIT:  23, READING: ..\WORK\Area.dat
 AT SIMULATION TIME:    6D  0H  0M  0S !
 TIME IN FILE:          6D  0H  0M  0S !

 REWIND ON       UNIT:  24, READING: ..\WORK\Flow.dat
 AT SIMULATION TIME:    6D  0H  0M  0S !
 TIME IN FILE:          6D  0H  0M  0S !
1
                                             Water quality calculation Sobek-WQ      
                                                                                     
                                                                                     
                                             T0: 2010.01.01 00:00:00  (scu=       1s)
 100.00% Completed


 DUMP OF INTERMEDIATE RESULTS IN SELECTED SEGMENTS
  TIME =   6D  0H  0M  0S .
 
 TOTAL MASS IN SYSTEM 5.4952E+03 5.8671E+02 4.9089E+03 5.0495E+04 7.4927E+03 0.0000E+00
 CHANGES BY PROCESSES-2.2915E+01-1.4906E+01-4.9790E+01 7.0874E+01 0.0000E+00 0.0000E+00
 CHANGES BY LOADS     0.0000E+00 0.0000E+00 0.0000E+00 0.0000E+00 0.0000E+00 0.0000E+00
 BOUNDARY INFLOWS     3.6000E+01 0.0000E+00 3.6000E+01 1.9800E+02 3.6000E+01 0.0000E+00
 BOUNDARY OUTFLOWS    2.0708E+01 1.4875E+00 1.1920E+01 2.5198E+02 3.6000E+01 0.0000E+00
                      NH4        CBOD5      CBOD5_2    OXY        Continuity SOD        
                                                                                        
 CONCENTRATION                           
 Start                9.2642E-01 0.0000E+00 8.3953E-01 6.2558E+00 1.0000E+00 0.0000E+00
 Upstream pipe        8.3710E-01 0.0000E+00 6.6643E-01 6.6633E+00 1.0000E+00 0.0000E+00
 Near pipe            7.5988E-01 4.9077E-03 5.4311E-01 6.8227E+00 1.0000E+00 0.0000E+00
 Far field            5.8115E-01 5.1796E-02 3.6110E-01 6.9885E+00 1.0000E+00 0.0000E+00
 SWT_Normal           7.3340E-01 7.8304E-02 6.5516E-01 6.7392E+00 1.0000E+00 0.0000E+00
 MASS                                    
 Start                4.1667E+02 0.0000E+00 3.7759E+02 2.8136E+03 4.4976E+02 0.0000E+00
 Upstream pipe        3.7649E+02 0.0000E+00 2.9973E+02 2.9969E+03 4.4976E+02 0.0000E+00
 Near pipe            3.4176E+02 2.2073E+00 2.4427E+02 3.0686E+03 4.4976E+02 0.0000E+00
 Far field            1.7428E+02 1.5533E+01 1.0829E+02 2.0957E+03 2.9988E+02 0.0000E+00
 SWT_Normal           5.4952E+03 5.8671E+02 4.9089E+03 5.0495E+04 7.4927E+03 0.0000E+00
 PROCESSES                               
 Start               -1.7361E+00 0.0000E+00-3.7005E+00 1.4857E+01 0.0000E+00 0.0000E+00
 Upstream pipe       -1.5687E+00 0.0000E+00-2.9375E+00 5.6213E+00 0.0000E+00 0.0000E+00
 Near pipe           -1.4243E+00-5.8318E-02-2.3969E+00 2.4230E+00 0.0000E+00 0.0000E+00
 Far field           -7.2668E-01-3.8223E-01-1.1961E+00 6.0545E-01 0.0000E+00 0.0000E+00
 SWT_Normal          -2.2915E+01-1.4906E+01-4.9790E+01 7.0874E+01 0.0000E+00 0.0000E+00
 LOADS ( IN )                            
 Start                0.0000E+00 0.0000E+00 0.0000E+00 0.0000E+00 0.0000E+00 0.0000E+00
 Upstream pipe        0.0000E+00 0.0000E+00 0.0000E+00 0.0000E+00 0.0000E+00 0.0000E+00
 Near pipe            0.0000E+00 0.0000E+00 0.0000E+00 0.0000E+00 0.0000E+00 0.0000E+00
 Far field            0.0000E+00 0.0000E+00 0.0000E+00 0.0000E+00 0.0000E+00 0.0000E+00
 SWT_Normal           0.0000E+00 0.0000E+00 0.0000E+00 0.0000E+00 0.0000E+00 0.0000E+00
 LOADS ( OUT )                           
 Start                0.0000E+00 0.0000E+00 0.0000E+00 0.0000E+00 0.0000E+00 0.0000E+00
 Upstream pipe        0.0000E+00 0.0000E+00 0.0000E+00 0.0000E+00 0.0000E+00 0.0000E+00
 Near pipe            0.0000E+00 0.0000E+00 0.0000E+00 0.0000E+00 0.0000E+00 0.0000E+00
 Far field            0.0000E+00 0.0000E+00 0.0000E+00 0.0000E+00 0.0000E+00 0.0000E+00
 SWT_Normal           0.0000E+00 0.0000E+00 0.0000E+00 0.0000E+00 0.0000E+00 0.0000E+00
 TRANSPORT ( IN )                        
 Start                3.5087E+01 0.0000E+00 3.3923E+01 2.1035E+02 3.6000E+01 0.0000E+00
 Upstream pipe        3.1701E+01 0.0000E+00 2.6927E+01 2.3426E+02 3.6000E+01 0.0000E+00
 Near pipe            2.8667E+01 2.4353E-02 2.1447E+01 2.4343E+02 3.6000E+01 0.0000E+00
 Far field            2.1443E+01 2.6449E+00 1.5252E+01 2.5073E+02 3.6000E+01 0.0000E+00
 SWT_Normal           3.6000E+01 0.0000E+00 3.6000E+01 1.9800E+02 3.6000E+01 0.0000E+00
 TRANSPORT ( OUT )                       
 Start                3.3351E+01 0.0000E+00 3.0223E+01 2.2521E+02 3.6000E+01 0.0000E+00
 Upstream pipe        3.0136E+01 0.0000E+00 2.3991E+01 2.3988E+02 3.6000E+01 0.0000E+00
 Near pipe            2.7359E+01 1.8381E-01 1.9569E+01 2.4561E+02 3.6000E+01 0.0000E+00
 Far field            2.0932E+01 1.8438E+00 1.2944E+01 2.5160E+02 3.6000E+01 0.0000E+00
 SWT_Normal           2.0708E+01 1.4875E+00 1.1920E+01 2.5198E+02 3.6000E+01 0.0000E+00
 
Performance timers:
|------------------------------------------------------------------------|
|Timer name                     |   cpu time        |    wall clock      |
|                               |-------------------|--------------------|
|                     | #times  |   sec     |  %    |    sec     |  %    |
|------------------------------------------------------------------------|
|Total                |       1 |       3.5 | 100.0 |        0.9 | 100.0 | 
|------------------------------------------------------------------------|
| *** In init, simulation:                                               |
|------------------------------------------------------------------------|
|Initialization       |       1 |       0.0 |   0.4 |        0.0 |   1.7 | 
|Integrat.routine 15  |       1 |       3.5 |  99.6 |        0.9 |  98.3 | 
|Total:               |         |       3.5 | 100.0 |        0.9 | 100.0 | 
|------------------------------------------------------------------------|
| *** In integration routine:                                            |
|------------------------------------------------------------------------|
|Proces library       |     865 |       0.4 |  10.6 |        0.1 |  10.3 | 
|Total Integration:   |         |       0.4 |  10.6 |        0.1 |  10.3 | 
|------------------------------------------------------------------------|
| *** In processes library:                                              |
|------------------------------------------------------------------------|
|Grid manipulations   |   10380 |       0.1 |  16.7 |        0.0 |  33.7 | 
|Flux manipulations   |    6055 |       0.2 |  66.7 |        0.1 |  66.3 | 
|Dispersion calc.     |     865 |       0.0 |   0.0 |        0.0 |   0.0 | 
|Communications       |     865 |       0.0 |   0.0 |        0.0 |   0.0 | 
|Proces   6: "BODCOD" |     865 |       0.0 |   0.0 |        0.0 |   0.0 | 
|Proces  15: "CALTAU" |     865 |       0.0 |   0.0 |        0.0 |   0.0 | 
|Proces  24: "DDEPTH" |     865 |       0.0 |   0.0 |        0.0 |   0.0 | 
|Proces  51: "NITRIF" |     865 |       0.0 |   0.0 |        0.0 |   0.0 | 
|Proces  69: "REAR"   |     865 |       0.0 |   0.0 |        0.0 |   0.0 | 
|Proces  83: "SATOXY" |     865 |       0.0 |   0.0 |        0.0 |   0.0 | 
|Proces  87: "SEDCAR" |    1730 |       0.0 |   0.0 |        0.0 |   0.0 | 
|Proces  94: "SEDOX"  |     865 |       0.0 |   0.0 |        0.0 |   0.0 | 
|Proces 111: "TOTDEP" |     865 |       0.0 |   0.0 |        0.0 |   0.0 | 
|Proces 161: "PTEWOR" |     865 |       0.0 |   0.0 |        0.0 |   0.0 | 
|Total Processes:     |         |       0.3 |  83.3 |        0.1 | 100.0 | 
|------------------------------------------------------------------------|
| *** In CouPLib communications library:                                 |
|------------------------------------------------------------------------|
|Index-sets           |       9 |       0.0 |   0.0 |        0.0 |   0.0 | 
|Interfaces           |       7 |       0.0 |   0.0 |        0.0 |   0.0 | 
|Total Communication: |         |       0.0 |   0.0 |        0.0 |   0.0 | 
|------------------------------------------------------------------------|
 
 Simulation ended normal
 Execution stop : 2011/09/26 10:10:21 
