 Delft3D-WAQ version  4.5204 16-03-2009
 Only to be used by SOBEK licensee                          
 (c) Deltares
 Execution start: 2011/09/26 10:10:16 
       ----------> Version number of the input file is: 4.910
       ----------> Output level of the listfile is: 9


 Model :            Water quality calculation Sobek-WQ      
                                                            

 Including file: \S212003\WQ_OEF1.LIT\WORK\DELWAQ4.INP                                                                                                                                                                                                                                                                                                                                                                                                                                                                                                                                                                                                                                                                                                                                                                                                                                                                                                                                                                                                   


 Run   :                                                    
                    T0: 2010.01.01 00:00:00  (scu=       1s)

 Intermediate version absolute timer detected !
 System clock is     1 seconds !

 Closing file: \S212003\WQ_OEF1.LIT\WORK\DELWAQ4.INP                                         

 Continuing on file: delwaq.inp                                                                    

 Including file: \S212003\WQ_OEF1.LIT\WORK\SUBSTANC.DWQ                                                                                                                                                                                                                                                                                                                                                                                                                                                                                                                                                                                                                                                                                                                                                                                                                                                                                                                                                                                                  

 Number of active constituents   :  5
 Number of inactive constituents :  1
 Total number of constituents    :  6
 Number   name
    1     NH4                 
    2     CBOD5               
    3     CBOD5_2             
    4     OXY                 
    5     Continuity          
    6     SOD                 

 Closing file: \S212003\WQ_OEF1.LIT\WORK\SUBSTANC.DWQ                                        

 Continuing on file: delwaq.inp                                                                    

 *********************************************************** B L O C K - 1 *****


 Including file: \S212003\WQ_OEF1.LIT\WORK\DELWAQ1.INP                                                                                                                                                                                                                                                                                                                                                                                                                                                                                                                                                                                                                                                                                                                                                                                                                                                                                                                                                                                                   


 Factor between two clocks :       86400
 System clock in date-format  DDHHMMSS 
 Auxiliary timer in date-format DDHHMMSS 

 The auxiliary timer is not equal to the system timer.
 All the process fluxes will be scaled from the auxiliary timer to the system timer.

 Integration option :               15.73
 Start of simulation : 0Y-  0D- 0H- 0M- 0S.
 End of simulation   : 0Y-  6D- 0H- 0M- 0S.
 Selected option for time step size :  0
 Integration time stepsize is : 0Y-  0D- 0H-10M- 0S.

 Closing file: \S212003\WQ_OEF1.LIT\WORK\DELWAQ1.INP                                         

 Continuing on file: delwaq.inp                                                                    

 Dump areas:
 option selected for input : 1
 Information from the standard input file.

 Including file: \S212003\WQ_OEF1.LIT\7\OUTLOCWQ.DAT                                                                                                                                                                                                                                                                                                                                                                                                                                                                                                                                                                                                                                                                                                                                                                                                                                                                                                                                                                                                     

 Including file: ..\work\monitor.dat                                                                                                                                                                                                                                                                                                                                                                                                                                                                                                                                                                                                                                                                                                                                                                                                                                                                                                                                                                                                                     

 Number of dump areas :    5

 Dump area :    1 : Start               
 Number of segments in area :              1
          number   segment
              1             20

 Dump area :    2 : Upstream pipe       
 Number of segments in area :              1
          number   segment
              1             18

 Dump area :    3 : Near pipe           
 Number of segments in area :              1
          number   segment
              1             16

 Dump area :    4 : Far field           
 Number of segments in area :              1
          number   segment
              1              2

 Dump area :    5 : SWT_Normal          
 Number of segments in area :             21
          number   segment
              1              1
              2              2
              3              3
              4              4
              5              5
              6              6
              7              7
              8              8
              9              9
             10             10
             11             11
             12             12
             13             13
             14             14
             15             15
             16             16
             17             17
             18             18
             19             19
             20             20
             21             21

 Closing file: ..\work\monitor.dat                                                           

 Continuing on file: \S212003\WQ_OEF1.LIT\7\OUTLOCWQ.DAT                                           

 Closing file: \S212003\WQ_OEF1.LIT\7\OUTLOCWQ.DAT                                           

 Continuing on file: delwaq.inp                                                                    

 Transects:
 option selected for input : 2
 No transects used.

 Including file: \S212003\WQ_OEF1.LIT\WORK\DELWAQ2.INP                                                                                                                                                                                                                                                                                                                                                                                                                                                                                                                                                                                                                                                                                                                                                                                                                                                                                                                                                                                                   


 Monitoring  timings :
 Start time : 0Y-  0D- 0H- 0M- 0S 
 Stop time  : 0Y-  6D- 0H- 0M- 0S 
 Time step  : 0Y-  0D- 1H- 0M- 0S 


 Output      timings :
 Start time : 0Y-  0D- 0H- 0M- 0S 
 Stop time  : 0Y-  6D- 0H- 0M- 0S 
 Time step  : 0Y-  0D- 2H- 0M- 0S 


 History     timings :
 Start time : 0Y-  0D- 0H- 0M- 0S 
 Stop time  : 0Y-  6D- 0H- 0M- 0S 
 Time step  : 0Y-  0D- 0H-10M- 0S 

 Closing file: \S212003\WQ_OEF1.LIT\WORK\DELWAQ2.INP                                         

 Continuing on file: delwaq.inp                                                                    

 *********************************************************** B L O C K - 2 *****


 Including file: ..\WORK\nrofsegm.dat                                                                                                                                                                                                                                                                                                                                                                                                                                                                                                                                                                                                                                                                                                                                                                                                                                                                                                                                                                                                                    


 Number of segments :             21

 Closing file: ..\WORK\nrofsegm.dat                                                          

 Continuing on file: delwaq.inp                                                                    

 NO process decomposition selected

 option selected for grid layout : 2
 Grid layout not used.

  0 blocks of time independent feature contribution

 option for time dependent attributes   0
 NO time dependent attributes
 No first attribute set, using default 1
 No second attribute set, using default 0

 Volumes:

 Including file: flowfil.mod                                                                                                                                                                                                                                                                                                                                                                                                                                                                                                                                                                                                                                                                                                                                                                                                                                                                                                                                                                                                                             

 First  selected option   :      -2

 Closing file: flowfil.mod                                                                   

 Continuing on file: delwaq.inp                                                                    

 Information from unformatted intermediate file.
 Filename is: ..\WORK\Volume.dat                                                                                                                                                                                                                                             
 WARNING file does not exist.
 Filename: ..\WORK\Volume.dat                                                                                                                                                                                                                                             

 *********************************************************** B L O C K - 3 *****


 Including file: ..\WORK\nrofexch.dat                                                                                                                                                                                                                                                                                                                                                                                                                                                                                                                                                                                                                                                                                                                                                                                                                                                                                                                                                                                                                    


 Dimensions of the system :
 Number of exchanges 1st direction :      23
 Number of exchanges 2nd direction :       0
 Number of exchanges 3rd direction :       0
 Total number of exchanges         :      23

 Closing file: ..\WORK\nrofexch.dat                                                          

 Continuing on file: delwaq.inp                                                                    

 Number of dispersion arrays       :       1

 Including file: \S212003\WQ_OEF1.LIT\7\DISPERSW.DAT                                                                                                                                                                                                                                                                                                                                                                                                                                                                                                                                                                                                                                                                                                                                                                                                                                                                                                                                                                                                     

 Item nr:       names:
     1          Dispersion          
 

 Closing file: \S212003\WQ_OEF1.LIT\7\DISPERSW.DAT                                           

 Continuing on file: delwaq.inp                                                                    

 Number of velocity arrays         :       0
 System dispersion velocity
   nr.      nr.      nr.   
     1        1        0
     2        1        0
     3        1        0
     4        1        0
     5        1        0

 Input option                      :       1

 Option selected for pointers      :      -1

 Including file: ..\WORK\Pointer.dat                                                                                                                                                                                                                                            

           First direction :
   Item nr.  From      To  From-1    To+1
       1      21      20       0      19
       2      19      18      20      17
       3      20      19      21      18
       4      18      17      19      16
       5      17      16      18      15
       6      15      14      16      13
       7      16      15      17      14
       8      13      12      14      11
       9      14      13      15      12
      10      12      11      13      10
      11      11      10      12       9
      12      10       9      11       8
      13       8       7       9       6
      14       9       8      10       7
      15       7       6       8       5
      16       6       5       7       4
      17       5       4       6       3
      18       4       3       5       2
      19       3       2       4       1
      20       2       1       3       0
      21      -1      21      -1      20
      22      -2      17      -2      16
      23      -3       1      -3       2

 Number of boundaries  :   3


 boundary  exchange    from        to
  number    number    segment    segment
      1        21        -1        21
      2        22        -2        17
      3        23        -3         1

 Size of the big matrix for fast solvers is:         43

 Dispersion:

 Closing file: ..\WORK\Pointer.dat                                                           

 Continuing on file: delwaq.inp                                                                    

 Including file: \S212003\WQ_OEF1.LIT\WORK\DELWAQ3.INP                                                                                                                                                                                                                                                                                                                                                                                                                                                                                                                                                                                                                                                                                                                                                                                                                                                                                                                                                                                                   

 First  selected option   :       1
 Information from the standard input file.
 Constant values without defaults 

 Scale factors:
                 1           2           3
              1.0000E+00  1.0000E+00  1.0000E+00
 Unscaled values:
         1    0.0000E+00  0.0000E+00  0.0000E+00

 Closing file: \S212003\WQ_OEF1.LIT\WORK\DELWAQ3.INP                                         

 Continuing on file: delwaq.inp                                                                    

 Including file: ..\work\disperx.dat                                                                                                                                                                                                                                                                                                                                                                                                                                                                                                                                                                                                                                                                                                                                                                                                                                                                                                                                                                                                                     
 Second selected option   :       1

 First  direction:
 Constant values without defaults 

 Scale factors:
                 1
              1.0000E+00
 Unscaled values:
         1    0.0000E+00
         2    0.0000E+00
         3    0.0000E+00
         4    0.0000E+00
         5    0.0000E+00
         6    0.0000E+00
         7    0.0000E+00
         8    0.0000E+00
         9    0.0000E+00
        10    0.0000E+00
        11    0.0000E+00
        12    0.0000E+00
        13    0.0000E+00
        14    0.0000E+00
        15    0.0000E+00
        16    0.0000E+00
        17    0.0000E+00
        18    0.0000E+00
        19    0.0000E+00
        20    0.0000E+00
        21    0.0000E+00
        22    0.0000E+00
        23    0.0000E+00

 Area:

 Closing file: ..\work\disperx.dat                                                           

 Continuing on file: delwaq.inp                                                                    

 Including file: flowfil.mod                                                                                                                                                                                                                                                                                                                                                                                                                                                                                                                                                                                                                                                                                                                                                                                                                                                                                                                                                                                                                             

 First  selected option   :      -2

 Closing file: flowfil.mod                                                                   

 Continuing on file: delwaq.inp                                                                    

 Information from unformatted intermediate file.
 Filename is: ..\WORK\Area.dat                                                                                                                                                                                                                                               
 WARNING file does not exist.
 Filename: ..\WORK\Area.dat                                                                                                                                                                                                                                               

 Flows:

 Including file: flowfil.mod                                                                                                                                                                                                                                                                                                                                                                                                                                                                                                                                                                                                                                                                                                                                                                                                                                                                                                                                                                                                                             

 First  selected option   :      -2

 Closing file: flowfil.mod                                                                   

 Continuing on file: delwaq.inp                                                                    

 Information from unformatted intermediate file.
 Filename is: ..\WORK\Flow.dat                                                                                                                                                                                                                                               
 WARNING file does not exist.
 Filename: ..\WORK\Flow.dat                                                                                                                                                                                                                                               

 Lengths:
 Option for lengths          :      1
 Lengths variable over the area.

 First  selected option   :       0

 Information from unformatted intermediate file.
 Filename is: ..\WORK\Length.dat                                                                                                                                                                                                                                             
 WARNING file does not exist.
 Filename: ..\WORK\Length.dat                                                                                                                                                                                                                                             

 *********************************************************** B L O C K - 4 *****


 Boundary-IDs:       boundary-names:                         boundary-types:


 Including file: ..\WORK\Boundwq.id                                                                                                                                                                                                                                                                                                                                                                                                                                                                                                                                                                                                                                                                                                                                                                                                                                                                                                                                                                                                                      
n1                      1                                   Boundary Flow       
nL1                     2                                   Lateral inflow      
n21                     3                                   Boundary Flow       
 
 Number of different boundary types:    2
 Type:  Type-string
     1  Boundary Flow       
     2  Lateral inflow      
 

 Closing file: ..\WORK\Boundwq.id                                                            

 Continuing on file: delwaq.inp                                                                    

 Including file: ..\work\tatcherharlemen.wq                                                                                                                                                                                                                                                                                                                                                                                                                                                                                                                                                                                                                                                                                                                                                                                                                                                                                                                                                                                                              

 Time lag option:  0
 No time lags

 Boundary concentrations

 Closing file: ..\work\tatcherharlemen.wq                                                    

 Continuing on file: delwaq.inp                                                                    

 Including file: \S212003\WQ_OEF1.LIT\WORK\BOUNDWQ.TYP                                                                                                                                                                                                                                                                                                                                                                                                                                                                                                                                                                                                                                                                                                                                                                                                                                                                                                                                                                                                   

 BLOCKED per ITEM:
 Input BOUNDARIES nr:    1 is BOUNDARIES type:    1 with type: Boundary Flow        and local substitution: Boundary Flow       

 CONCENTRATIONs within the item blocks:
 Input CONCENTR.  nr:    1 is CONCENTR.  nr:    1 with ID  : NH4                  and local substitution: NH4                 
 Input CONCENTR.  nr:    2 is CONCENTR.  nr:    2 with ID  : CBOD5                and local substitution: CBOD5               
 Input CONCENTR.  nr:    3 is CONCENTR.  nr:    3 with ID  : CBOD5_2              and local substitution: CBOD5_2             
 Input CONCENTR.  nr:    4 is CONCENTR.  nr:    4 with ID  : OXY                  and local substitution: OXY                 
 Input CONCENTR.  nr:    5 is CONCENTR.  nr:    5 with ID  : Continuity           and local substitution: Continuity          
 
 Column:  1 contains: NH4                                      Status: used    
 Column:  2 contains: CBOD5                                    Status: used    
 Column:  3 contains: CBOD5_2                                  Status: used    
 Column:  4 contains: OXY                                      Status: used    
 Column:  5 contains: Continuity                               Status: used    

 DATA grouped in    1 blocks of    5 Substance 
 Constant values in this block.
 Substance      1           2           3           4           5
 boundary     NH4         CBOD5       CBOD5_2     OXY         Continuity  
         1    1.0000E+00  0.0000E+00  1.0000E+00  5.5000E+00  1.0000E+00

 ====> input item completed <==== 



 BLOCKED per ITEM:
 Input BOUNDARIES nr:    1 is BOUNDARIES type:    2 with type: Lateral inflow       and local substitution: Lateral inflow      

 CONCENTRATIONs within the item blocks:
 Input CONCENTR.  nr:    1 is CONCENTR.  nr:    1 with ID  : NH4                  and local substitution: NH4                 
 Input CONCENTR.  nr:    2 is CONCENTR.  nr:    2 with ID  : CBOD5                and local substitution: CBOD5               
 Input CONCENTR.  nr:    3 is CONCENTR.  nr:    3 with ID  : CBOD5_2              and local substitution: CBOD5_2             
 Input CONCENTR.  nr:    4 is CONCENTR.  nr:    4 with ID  : OXY                  and local substitution: OXY                 
 Input CONCENTR.  nr:    5 is CONCENTR.  nr:    5 with ID  : Continuity           and local substitution: Continuity          
 
 Column:  1 contains: NH4                                      Status: used    
 Column:  2 contains: CBOD5                                    Status: used    
 Column:  3 contains: CBOD5_2                                  Status: used    
 Column:  4 contains: OXY                                      Status: used    
 Column:  5 contains: Continuity                               Status: used    

 DATA grouped in    1 blocks of    5 Substance 
 Constant values in this block.
 Substance      1           2           3           4           5
 boundary     NH4         CBOD5       CBOD5_2     OXY         Continuity  
         2    5.5000E+00  6.0000E+01  4.0000E+01  7.0000E+00  1.0000E+00

 ====> input item completed <==== 



 Closing file: \S212003\WQ_OEF1.LIT\WORK\BOUNDWQ.TYP                                         

 Continuing on file: delwaq.inp                                                                    

 Including file: \S212003\WQ_OEF1.LIT\WORK\BOUNDWQ.DAT                                                                                                                                                                                                                                                                                                                                                                                                                                                                                                                                                                                                                                                                                                                                                                                                                                                                                                                                                                                                   

 Closing file: \S212003\WQ_OEF1.LIT\WORK\BOUNDWQ.DAT                                         

 Continuing on file: delwaq.inp                                                                    

 Including file: ..\work\em2wq.dat                                                                                                                                                                                                                                                                                                                                                                                                                                                                                                                                                                                                                                                                                                                                                                                                                                                                                                                                                                                                                       

 Closing file: ..\work\em2wq.dat                                                             

 Continuing on file: delwaq.inp                                                                    

 Including file: \S212003\FIXED\RSDUMMY.DUM                                                                                                                                                                                                                                                                                                                                                                                                                                                                                                                                                                                                                                                                                                                                                                                                                                                                                                                                                                                                              

 Closing file: \S212003\FIXED\RSDUMMY.DUM                                                    

 Continuing on file: delwaq.inp                                                                    

 *********************************************************** B L O C K - 5 *****


 Including file: ..\WORK\nrofDWL.dat                                                                                                                                                                                                                                                                                                                                                                                                                                                                                                                                                                                                                                                                                                                                                                                                                                                                                                                                                                                                                     

 No waste loads 

 Closing file: ..\WORK\nrofDWL.dat                                                           

 Continuing on file: delwaq.inp                                                                    

 Including file: ..\WORK\Loadswq.id                                                                                                                                                                                                                                                                                                                                                                                                                                                                                                                                                                                                                                                                                                                                                                                                                                                                                                                                                                                                                      

 Closing file: ..\WORK\Loadswq.id                                                            

 Continuing on file: delwaq.inp                                                                    

 Including file: \S212003\WQ_OEF1.LIT\WORK\LOADSWQ.TYP                                                                                                                                                                                                                                                                                                                                                                                                                                                                                                                                                                                                                                                                                                                                                                                                                                                                                                                                                                                                   

 Closing file: \S212003\WQ_OEF1.LIT\WORK\LOADSWQ.TYP                                         

 Continuing on file: delwaq.inp                                                                    

 Including file: \S212003\WQ_OEF1.LIT\WORK\LOADSWQ.DAT                                                                                                                                                                                                                                                                                                                                                                                                                                                                                                                                                                                                                                                                                                                                                                                                                                                                                                                                                                                                   

 Closing file: \S212003\WQ_OEF1.LIT\WORK\LOADSWQ.DAT                                         

 Continuing on file: delwaq.inp                                                                    

 *********************************************************** B L O C K - 6 *****

  
 Input constant   nr:    1 is constant   nr:    1 with ID  : Iteration report    

 DATA grouped in    1 blocks of    1 values    
 Constant values in this block.
         1    0.0000E+00

 ====> input item completed <==== 



 Including file: \S212003\WQ_OEF1.LIT\7\PROCESS.DWQ                                                                                                                                                                                                                                                                                                                                                                                                                                                                                                                                                                                                                                                                                                                                                                                                                                                                                                                                                                                                      
  
 Input constant   nr:    1 is constant   nr:    2 with ID  : ACTIVE_BODCOD       
 Input constant   nr:    2 is constant   nr:    3 with ID  : ACTIVE_CalTau       
 Input constant   nr:    3 is constant   nr:    4 with ID  : ACTIVE_DynDepth     
 Input constant   nr:    4 is constant   nr:    5 with ID  : ACTIVE_Nitrif_NH4   
 Input constant   nr:    5 is constant   nr:    6 with ID  : ACTIVE_Prod_TEWOR   
 Input constant   nr:    6 is constant   nr:    7 with ID  : ACTIVE_RearOXY      
 Input constant   nr:    7 is constant   nr:    8 with ID  : ACTIVE_S_CBOD51     
 Input constant   nr:    8 is constant   nr:    9 with ID  : ACTIVE_S_CBOD52     
 Input constant   nr:    9 is constant   nr:   10 with ID  : ACTIVE_SaturOXY     
 Input constant   nr:   10 is constant   nr:   11 with ID  : ACTIVE_SedOXYDem    
 Input constant   nr:   11 is constant   nr:   12 with ID  : ACTIVE_TotDepth     

 DATA grouped in   11 blocks of    1 values    
 Constant values in this block.
         2    0.0000E+00
         3    0.0000E+00
         4    0.0000E+00
         5    0.0000E+00
         6    0.0000E+00
         7    0.0000E+00
         8    0.0000E+00
         9    0.0000E+00
        10    0.0000E+00
        11    0.0000E+00
        12    0.0000E+00

 ====> input item completed <==== 



 Closing file: \S212003\WQ_OEF1.LIT\7\PROCESS.DWQ                                            

 Continuing on file: delwaq.inp                                                                    

 Including file: \S212003\WQ_OEF1.LIT\7\CONSTANT.DWQ                                                                                                                                                                                                                                                                                                                                                                                                                                                                                                                                                                                                                                                                                                                                                                                                                                                                                                                                                                                                     
  
 Input constant   nr:    1 is constant   nr:   13 with ID  : TcNit               
 Input constant   nr:    2 is constant   nr:   14 with ID  : COXNIT              
 Input constant   nr:    3 is constant   nr:   15 with ID  : RcNit               
 Input constant   nr:    4 is constant   nr:   16 with ID  : OOXNIT              
 Input constant   nr:    5 is constant   nr:   17 with ID  : fTEWORBOD           
 Input constant   nr:    6 is constant   nr:   18 with ID  : fTEWOROXY           
 Input constant   nr:    7 is constant   nr:   19 with ID  : fTEWORNH4           
 Input constant   nr:    8 is constant   nr:   20 with ID  : RcBOD               
 Input constant   nr:    9 is constant   nr:   21 with ID  : RcBOD_2             
 Input constant   nr:   10 is constant   nr:   22 with ID  : TcBOD               
 Input constant   nr:   11 is constant   nr:   23 with ID  : COXBOD              
 Input constant   nr:   12 is constant   nr:   24 with ID  : OOXBOD              
 Input constant   nr:   13 is constant   nr:   25 with ID  : CFLBOD              
 Input constant   nr:   14 is constant   nr:   26 with ID  : O2FuncBOD           
 Input constant   nr:   15 is constant   nr:   27 with ID  : BOD5                
 Input constant   nr:   16 is constant   nr:   28 with ID  : BODu                
 Input constant   nr:   17 is constant   nr:   29 with ID  : VSedBOD5            
 Input constant   nr:   18 is constant   nr:   30 with ID  : VSedBOD5_2          
 Input constant   nr:   19 is constant   nr:   31 with ID  : Salinity            
 Input constant   nr:   20 is constant   nr:   32 with ID  : SWRear              
 Input constant   nr:   21 is constant   nr:   33 with ID  : KLRear              
 Input constant   nr:   22 is constant   nr:   34 with ID  : TCRear              
 Input constant   nr:   23 is constant   nr:   35 with ID  : fSOD                
 Input constant   nr:   24 is constant   nr:   36 with ID  : RcSOD               

 DATA grouped in   24 blocks of    1 values    
 Constant values in this block.
        13    1.0800E+00
        14    1.0000E+00
        15    1.0000E-01
        16    5.0000E+00
        17    0.0000E+00
        18    0.0000E+00
        19    0.0000E+00
        20    6.0000E-01
        21    1.0000E-01
        22    1.0470E+00
        23    1.0000E+00
        24    5.0000E+00
        25    0.0000E+00
        26    0.0000E+00
        27    0.0000E+00
        28    0.0000E+00
        29    0.0000E+00
        30    1.0000E-01
        31    0.0000E+00
        32    1.0000E+00
        33    1.0000E+00
        34    1.0240E+00
        35    0.0000E+00
        36    0.0000E+00

 ====> input item completed <==== 



 Closing file: \S212003\WQ_OEF1.LIT\7\CONSTANT.DWQ                                           

 Continuing on file: delwaq.inp                                                                    

 Including file: ..\work\param.dat                                                                                                                                                                                                                                                                                                                                                                                                                                                                                                                                                                                                                                                                                                                                                                                                                                                                                                                                                                                                                       
  
 Input parameter  nr:    1 is parameter  nr:    1 with ID  : Xseg                

 Input will be given for all         21 segments.

 DATA grouped in    1 blocks of   21 segments  
 Constant values in this block.
 segments       1           2           3           4           5
 parameters   Segment     Segment     Segment     Segment     Segment     
         1    1.9500E+03  1.8750E+03  1.7500E+03  1.6500E+03  1.5500E+03
 segments       6           7           8           9          10
 parameters   Segment     Segment     Segment     Segment     Segment     
         1    1.4500E+03  1.3500E+03  1.2738E+03  1.2238E+03  1.1500E+03
 segments      11          12          13          14          15
 parameters   Segment     Segment     Segment     Segment     Segment     
         1    1.0500E+03  9.5000E+02  8.5000E+02  7.6268E+02  6.5000E+02
 segments      16          17          18          19          20
 parameters   Segment     Segment     Segment     Segment     Segment     
         1    5.7500E+02  4.5000E+02  3.7500E+02  2.5000E+02  1.7500E+02
 segments      21
 parameters   OOXBOD      
         1    5.0000E+01

 ====> input item completed <==== 


  
 Input parameter  nr:    1 is parameter  nr:    2 with ID  : Yseg                

 Input will be given for all         21 segments.

 DATA grouped in    1 blocks of   21 segments  
 Constant values in this block.
 segments       1           2           3           4           5
 parameters   Segment     Segment     Segment     Segment     Segment     
         2    0.0000E+00  0.0000E+00  0.0000E+00  0.0000E+00  0.0000E+00
 segments       6           7           8           9          10
 parameters   Segment     Segment     Segment     Segment     Segment     
         2    0.0000E+00  0.0000E+00  0.0000E+00  0.0000E+00  0.0000E+00
 segments      11          12          13          14          15
 parameters   Segment     Segment     Segment     Segment     Segment     
         2    0.0000E+00  0.0000E+00  0.0000E+00  0.0000E+00  0.0000E+00
 segments      16          17          18          19          20
 parameters   Segment     Segment     Segment     Segment     Segment     
         2    0.0000E+00  0.0000E+00  0.0000E+00  0.0000E+00  0.0000E+00
 segments      21
 parameters   RcSOD       
         2    0.0000E+00

 ====> input item completed <==== 



 Closing file: ..\work\param.dat                                                             

 Continuing on file: delwaq.inp                                                                    

 Including file: \SOBEK212\FIXED\DEFAULT.QWC                                                                                                                                                                                                                                                                                                                                                                                                                                                                                                                                                                                                                                                                                                                                                                                                                                                                                                                                                                                                             
  
 Input constant   nr:    1 is constant   nr:   37 with ID  : VWIND               
 Input constant   nr:    2 is constant   nr:   38 with ID  : WINDDIR             

 DATA grouped in    2 blocks of    1 values    
 Constant values in this block.
        37    1.0000E+01
        38    6.0000E+01

 ====> input item completed <==== 



 Closing file: \SOBEK212\FIXED\DEFAULT.QWC                                                   

 Continuing on file: delwaq.inp                                                                    

 Including file: \SOBEK212\FIXED\DEFAULT.QSC                                                                                                                                                                                                                                                                                                                                                                                                                                                                                                                                                                                                                                                                                                                                                                                                                                                                                                                                                                                                             
  
 Input constant   nr:    1 is constant   nr:   39 with ID  : TEMP                
 Input constant   nr:    2 is constant   nr:   40 with ID  : RAD                 

 DATA grouped in    2 blocks of    1 values    
 Constant values in this block.
        39    2.0000E+01
        40    5.0000E+01

 ====> input item completed <==== 



 Closing file: \SOBEK212\FIXED\DEFAULT.QSC                                                   

 Continuing on file: delwaq.inp                                                                    
  
 Input seg-funct. nr:    1 is seg-funct. nr:    1 with ID  : Chezy               
 Input seg-funct. nr:    2 is seg-funct. nr:    2 with ID  : Surf                
 Input seg-funct. nr:    3 is seg-funct. nr:    3 with ID  : Velocity            
 Input seg-funct. nr:    4 is seg-funct. nr:    4 with ID  : Width               

 Input will be given for all         21 segments.
 Input comes from binary file: ..\work\segfun.dat                                                                                                                                                                                                                              

 DATA grouped in    4 blocks of   21 segments  
 Info comes at runtime from binary file at unit: 801

 ====> input item completed <==== 



 Total number of constants        :   40

 Total number of parameters       :    2

 Total number of functions        :    0

 Total number of segment functions:    4

 *********************************************************** B L O C K - 7 *****


 Including file: ..\work\wq2.dat                                                                                                                                                                                                                                                                                                                                                                                                                                                                                                                                                                                                                                                                                                                                                                                                                                                                                                                                                                                                                         


 Option selected for initials    :   0

 Information from unformatted intermediate file.
 Filename is: ..\work\wqres.res                                                                                                                                                                                                                                              
 WARNING file does not exist.
 Filename: ..\work\wqres.res                                                                                                                                                                                                                                              

 Closing file: ..\work\wq2.dat                                                               

 Continuing on file: delwaq.inp                                                                    

 *********************************************************** B L O C K - 8 *****



 Option selected for output specification :   1
 Information from the standard input file.

 Specification of monitor output

 Default output for this file

 Specification of grid dump output

 No output for this file

 Specification of history output

 Including file: hisvar.dat                                                                                                                                                                                                                                                                                                                                                                                                                                                                                                                                                                                                                                                                                                                                                                                                                                                                                                                                                                                                                              

 All substances plus extra output variables

 Including file: \S212003\WQ_OEF1.LIT\7\OUTPUT.DWQ                                                                                                                                                                                                                                                                                                                                                                                                                                                                                                                                                                                                                                                                                                                                                                                                                                                                                                                                                                                                       

 (      8) number of output variables specified

 Number           Identification        Weight variable
       1           Winddir               volume              
       2           Vwind                 volume              
       3           Temp                  volume              
       4           Rad                   volume              
       5           Volume                                    
       6           Surf                                      
       7           SatPercOXY            volume              
       8           SaturOXY              volume              

 Specification of map output

 Closing file: \S212003\WQ_OEF1.LIT\7\OUTPUT.DWQ                                             

 Continuing on file: hisvar.dat                                                                    

 Closing file: hisvar.dat                                                                    

 Continuing on file: delwaq.inp                                                                    

 Including file: mapvar.dat                                                                                                                                                                                                                                                                                                                                                                                                                                                                                                                                                                                                                                                                                                                                                                                                                                                                                                                                                                                                                              

 Default output for this file

 Closing file: mapvar.dat                                                                    

 Continuing on file: delwaq.inp                                                                    

 Binary history file switched on

 Binary map file switched on

 NEFIS history file switched off

 NEFIS map file switched off
 
  Determining the place of the output variables
 
        Winddir             ; Using constant nr          38
        Vwind               ; Using constant nr          37
        Temp                ; Using constant nr          39
        Rad                 ; Using constant nr          40
        Volume              ; Using DELWAQ VOLUME
        Surf                ; Using segment function nr           2
   INFO:SatPercOXY          ; NOT FOUND, delwaq1p will detect variables from process library
   INFO:SaturOXY            ; NOT FOUND, delwaq1p will detect variables from process library
        volume              ; Using DELWAQ VOLUME
        volume              ; Using DELWAQ VOLUME
        volume              ; Using DELWAQ VOLUME
        volume              ; Using DELWAQ VOLUME
        volume              ; Using DELWAQ VOLUME
        volume              ; Using DELWAQ VOLUME
  Not all variables available.
  Number off missing variables :           2

 *********************************************************** B L O C K - 9 *****


 Output operations
Number of periods defined:     0
 

 *********************************************************** B L O C K -10 *****



 Messages presented in this .lst file:

 Number of ERRORS during input :  0
 


 Messages presented including .lsp file:

 Number of ERRORS during input :  0
 total real    array space:       5664
 total integer array space:       4399
 total CHARACTER*20  space:        320
 Execution stop : 2011/09/26 10:10:17 
