# Generated on 2018-03-19 11:59:02
# Deltares, D-Flow FM user interface version 1.4.3.39324, D-Flow FM kernel version 1.2.0.8266

[model]
Program           = D-Flow FM
Version           = 1.2.0.8266
MDUFormatVersion  = 1.05                # File format version (do not edit this)
GuiVersion        = 1.4.3.39324
AutoStart         = 0                   # Autostart simulation after loading MDU (0: no, 1: autostart, 2: autostartstop)

[geometry]
NetFile           = goot_net.nc         # Unstructured grid file *_net.nc
BathymetryFile    =                     # Bathymetry points file *.xyb
DryPointsFile     =                     # Dry points file *.xyz (third column dummy z values), or dry areas polygon file *.pol (third column 1/-1: inside/outside)
EnclosureFile     =
WaterLevIniFile   =                     # Initial water levels sample file *.xyz
LandBoundaryFile  =                     # Land boundaries file *.ldb, used for visualization
ThinDamFile       =                     # Polyline file *_thd.pli, containing thin dams
PillarFile        = bridge-2.pliz       # Polyline file *_pillar.pliz, containing four colums with x, y, diameter and Cd coefficient
FixedWeirFile     = weir_fxw.pliz       # Polyline file *_fxw.pliz, containing fixed weirs with rows x, y, crest level, left ground level, right ground level
StructureFile     =                     # File *.ini containing list of structures (pumps, weirs, gates and general structures)
VertplizFile      =                     # Vertical layering file *_vlay.pliz with rows x, y, Z, first Z, nr of layers, second Z, layer type
ProflocFile       =                     # Channel profile location file *_proflocation.xyz with rows x, y, z, profile number ref
ProfdefFile       =                     # Channel profile definition file *_profdefinition.def with definition for all profile numbers
ProfdefxyzFile    =                     # Channel profile definition file _profdefinition.def with definition for all profile numbers
Uniformwidth1D    = 2                   # Uniform width for channel profiles not specified by profloc
ManholeFile       =                     # File *.ini containing manholes
WaterLevIni       = 12.5                # Initial water level at missing s0 values
Bedlevuni         = -5                  # Uniform bed level used at missing z values if BedlevType > 2
Bedslope          = 0
BedlevType        = 3                   # Bathymetry specification
Blmeanbelow       = -999
Blminabove        = -999
                                                        # 1: at cell centers (from BathymetryFile)
                                                        # 2: at faces (from BathymetryFile)
                                                        # 3: at nodes, face levels mean of node values
                                                        # 4: at nodes, face levels min. of node values
                                                        # 5: at nodes, face levels max. of node values
                                                        # 6: at nodes, face levels max. of cell-center values
PartitionFile     =                     # Domain partition polygon file *_part.pol for parallel run
AngLat            = 52.69               # Angle of latitude S-N (deg), 0: no Coriolis
AngLon            = 0                   # Angle of longitude E-W (deg), 0: Greenwich
Conveyance2D      = -1                  # -1: R,HU,0: R,H, 1: R,A/P, 2: K,analytic-1D conv, 3: K,analytic-2D conv
Nonlin2D          = 0                   # Non-linear 2D volumes, only used if ibedlevtype=3 and Conveyance2D>=1
Sillheightmin     = 0
Makeorthocenters  = 0
Dcenterinside     = 1
Bamin             = 1E-06
OpenBoundaryTolerance= 3
RenumberFlowNodes = 1
Kmx               = 0
Layertype         = 1
Numtopsig         = 0
SigmaGrowthFactor = 1

[numerics]
CFLMax            = 0.7                 # Maximum Courant number
AdvecType         = 33                  # Advection type (0: none, 1: Wenneker, 2: Wenneker q(uio-u), 3: Perot q(uio-u), 4: Perot q(ui-u), 5: Perot q(ui-u) without itself)
TimeStepType      = 2                   # Time step handling (0: only transport, 1: transport + velocity update, 2: full implicit step-reduce, 3: step-Jacobi, 4: explicit)
Limtyphu          = 0
Limtypmom         = 4                   # Limiter type for cell center advection velocity (0: none, 1: minmod, 2: van Leer, 3: Kooren, 4: monotone central)
Limtypsa          = 0                   # Limiter type for salinity transport (0: none, 1: minmod, 2: van Leer, 3: Kooren, 4: monotone central)
Vertadvtypsal     = 5
Icgsolver         = 4                   # Solver type (1: sobekGS_OMP, 2: sobekGS_OMPthreadsafe, 3: sobekGS, 4: sobekGS + Saadilud, 5: parallel/global Saad, 6: parallel/Petsc, 7: parallel/GS)
Maxdegree         = 6
FixedWeirScheme   = 9                   # 0 = no, 1 = compact stencil, 2 = whole tile lifted, full subgrid weir + factor
FixedWeirContraction= 1                   # flow width = flow width*thindykecontraction
FixedWeirfrictscheme= 1
Fixedweirtopwidth = 3
Fixedweirtopfrictcoef= -999
Fixedweirtalud    = 4
Izbndpos          = 0
Tlfsmo            = 3600                # Fourier smoothing time (s) on water level boundaries
Slopedrop2D       = 0                   # Apply drop losses only if local bed slope > Slopedrop2D, (<=0: no drop losses)
Chkadvd           = 0.1
Teta0             = 0.55
Qhrelax           = 0.01
Jbasqbnddownwindhs= 0
cstbnd            = 0                   # Delft-3D type velocity treatment near boundaries for small coastal models (1: yes, 0: no)
Maxitverticalforestersal= 0
Maxitverticalforestertem= 0
Jaorgsethu        = 1
Turbulencemodel   = 3
Turbulenceadvection= 3
AntiCreep         = 0
Maxwaterleveldiff = 0
Maxvelocitydiff   = 0
Epshu             = 0.0001              # Threshold water depth for wet and dry cells
SobekDFM_umin     = 0

[physics]
UnifFrictCoef     = 0.18                # Uniform friction coefficient (0: no friction)
UnifFrictType     = 2                   # Uniform friction type (0: Chezy, 1: Manning, 2: White-Colebrook, 3: idem, WAQUA style)
UnifFrictCoef1D   = 0                   # Uniform friction coefficient in 1D links (0: no friction)
UnifFrictCoefLin  = 0                   # Uniform linear friction coefficient for ocean models (m/s) (0: no friction)
Umodlin           = 0
Vicouv            = 1                   # Uniform horizontal eddy viscosity (m2/s)
Dicouv            = 1                   # Uniform horizontal eddy diffusivity (m2/s)
Vicoww            = 5E-05
Dicoww            = 5E-05
Vicwminb          = 0
Smagorinsky       = 0                   # Smagorinsky factor in horizontal turbulence
Elder             = 0                   # Elder factor in horizontal turbulence
Irov              = 0
wall_ks           = 0                   # Wall roughness type (0: free slip, 1: partial slip using wall_ks)
Rhomean           = 1023                # Average water density (kg/m3)
Idensform         = 0                   # Density calulation (0: uniform, 1: Eckard, 2: Unesco, 3: baroclinic case)
Ag                = 9.813               # Gravitational acceleration
TidalForcing      = 0                   # Tidal forcing, if jsferic=1 (0: no, 1: yes)
Doodsonstart      = 55.565
Doodsonstop       = 375.575
Doodsoneps        = 0
Salinity          = 0                   # Include salinity, (0=no, 1=yes)
InitialSalinity   = 0
Sal0abovezlev     = -999
DeltaSalinity     = -999
Backgroundsalinity= 30
Temperature       = 0                   # Include temperature (0: no, 1: only transport, 3: excess model of D3D, 5: composite (ocean) model)
InitialTemperature= 6
Secchidepth       = 2
Stanton           = -1
Dalton            = -1
Backgroundwatertemperature= 6
SecondaryFlow     = 0                   # Secondary flow (0: no, 1: yes)
EffectSpiral      = 0
BetaSpiral        = 0

[wind]
ICdtyp            = 3                   # Wind drag coefficient type (1: constant, 2: S&B 2 breakpoints, 3: S&B 3 breakpoints, 4: Charnock constant, 5: Whang)
Cdbreakpoints     = 0.0026 0.0026 0.0026# Wind drag coefficient break points
Windspeedbreakpoints= 0 100 100.1         # Wind speed break points (m/s)
Rhoair            = 1.205
PavBnd            = 0
PavIni            = 0

[waves]
Wavemodelnr       = 0
WaveNikuradse     = 0.01
Rouwav            = FR84
Gammax            = 1

[time]
RefDate           = 19941201            # Reference date (yyyymmdd)
Tzone             = 0                   # Time zone assigned to input time series
DtUser            = 15                  # Time interval (s) for external forcing update
DtNodal           =
DtMax             = 15                  # Maximal computation timestep (s)
DtInit            = 1.5                 # Initial computation timestep (s)
Tunit             = H                   # Time unit for start/stop times (H, M or S)
TStart            = 0                   # Start time w.r.t. RefDate (in TUnit)
TStop             = 6                   # Stop  time w.r.t. RefDate (in TUnit)

[restart]
RestartFile       =                     # Restart netcdf-file, either *_rst.nc or *_map.nc
RestartDateTime   = 20180126            # Restart date and time (YYYYMMDDHHMMSS) when restarting from *_map.nc

[external forcing]
ExtForceFile      =                     # *.ext
ExtForceFileNew   = tab.ext

[trachytopes]
TrtRou            = N
TrtDef            =
TrtL              =
TrtDt             = 60

[output]
Wrishp_crs        = 0
Wrishp_weir       = 0
Wrishp_gate       = 0
Wrishp_fxw        = 0
Wrishp_thd        = 0
Wrishp_obs        = 0
Wrishp_emb        = 0
Wrishp_dryarea    = 0
Wrishp_enc        = 0
Wrishp_src        = 0
OutputDir         =                     # Output directory of map-, his-, rst-, dat- and timings-files, default: DFM_OUTPUT_<modelname>. Set to . for current dir.
FlowGeomFile      =                     # Flow geometry NetCDF *_flowgeom.nc
ObsFile           = tab_obs.xyn         # Points file *.xyn with observation stations with rows x, y, station name
CrsFile           = tab_crs.pli bridge-1_crs.pli# Polyline file *_crs.pli defining observation cross sections
HisFile           =
HisInterval       = 600                 # History output times, given as "interval" "start period" "end period" (s)
XLSInterval       =                     # Interval (s) between XLS history
MapFile           =
MapInterval       = 3600                # Map file output, given as "interval" "start period" "end period" (s)
RstInterval       = 0                   # Restart file output times, given as "interval" "start period" "end period" (s)
S1incinterval     =
WaqInterval       = 0                   # Interval (in s) between DELWAQ file outputs
StatsInterval     =                     # Interval (in s) between simulation statistics output.
TimingsInterval   =                     # Timings statistics output interval
MapFormat         = 1                   # Map file format, 1: netCDF, 2: Tecplot, 3: netCFD and Tecplot, 4: NetCDF-UGRID
Wrihis_balance    = 1
Wrihis_structure_gen= 1
Wrihis_structure_dam= 1
Wrihis_structure_pump= 1
Wrihis_structure_gate= 1
Wrimap_waterlevel_s0= 1
Wrimap_waterlevel_s1= 1
Wrimap_velocity_component_u0= 1
Wrimap_velocity_component_u1= 1
Wrimap_velocity_vector= 1
Wrimap_upward_velocity_component= 0
Wrimap_density_rho= 1
Wrimap_horizontal_viscosity_viu= 1
Wrimap_horizontal_diffusivity_diu= 1
Wrimap_flow_flux_q1= 1
Wrimap_spiral_flow= 1
Wrimap_numlimdt   = 0
Wrimap_taucurrent = 1
Wrimap_chezy      = 1
Wrimap_turbulence = 1
Wrimap_wind       = 0                   # Write wind velocities to map file (1=yes, 0=no)
Wrimap_heat_fluxes= 0
Richardsononoutput= 1
MapOutputTimeVector=                     # File (.mpt) containing fixed map output times (s) w.r.t. RefDate
FullGridOutput    = 0                   # 0:compact, 1:full time-varying grid data
EulerVelocities   = 0
TimeSplitInterval = 0X                  # Time splitting interval, after which a new output file is started. value+unit, e.g. '1 M', valid units: Y,M,D,h,m,s.
Wrimap_constituents= 0                   # Write constituents to map-file (1=yes, 0=no)
