file-created-by  Deltares, D-Flow FM Version 1.1.179.45122, Mar 17 2016, 19:55:45
file-creation-date  2016-07-25, 11:56:00                                        
task      full-coupling
geometry  unstructured
horizontal-aggregation no
reference-time              '20010101000000'
hydrodynamic-start-time     '20100101000000'
hydrodynamic-stop-time      '20100101010000'
hydrodynamic-timestep       '00000000000020'
conversion-ref-time         '20010101000000'
conversion-start-time       '20100101000000'
conversion-stop-time        '20100101010000'
conversion-timestep         '00000000000020'
grid-cells-first-direction                    6431
grid-cells-second-direction                      1
number-hydrodynamic-layers                       1
number-horizontal-exchanges                   9611
number-vertical-exchanges                        0
number-water-quality-segments-per-layer       6431
number-water-quality-layers                      1
hydrodynamic-file           'FlowFM'
aggregation-file            none
boundaries-file             'FlowFM.bnd'
waqgeom-file                'FlowFM_waqgeom.nc'
grid-indices-file           'FlowFM.bnd'
grid-coordinates-file       'FlowFM_waqgeom.nc'
volumes-file                'FlowFM.vol'
areas-file                  'FlowFM.are'
flows-file                  'FlowFM.flo'
pointers-file               'FlowFM.poi'
lengths-file                'FlowFM.len'
salinity-file               none
temperature-file            none
vert-diffusion-file         none
horizontal-surfaces-file    'FlowFM.srf'
surfaces-file               'FlowFM.srfold'
shear-stresses-file         'FlowFM.tau'
attributes-file             'FlowFM.atr'
hydrodynamic-layers
       1.000000
end-hydrodynamic-layers
water-quality-layers   
       1.000000
end-water-quality-layers
