***********************************************************************************************************************************
*** Print of Delft3D-FLOW for Run f34 - Simulation date: 2015-05-18  16:47:01  page     1                                       ***
*** Deltares, FLOW2D3D Version 6.01.12.4440, Nov 22 2014, 17:32:03                                                              ***
*** User: Unknown                                                                                                               ***
***********************************************************************************************************************************

***********************************************************************************************************************************
*** Print of Delft3D-FLOW for Run f34 - Simulation date: 2015-05-18  16:47:40  page     1                                       ***
*** Deltares, FLOW2D3D Version 6.01.15.5093, May 18 2015, 16:12:31                                                              ***
*** User: Unknown                                                                                                               ***
***********************************************************************************************************************************

***********************************************************************************************************************************
*** Print of Delft3D-FLOW for Run f34 - Simulation date: 2015-05-18  16:51:52  page     1                                       ***
*** Deltares, FLOW2D3D Version 6.01.15.5093, May 18 2015, 16:51:44                                                              ***
*** User: Unknown                                                                                                               ***
***********************************************************************************************************************************

***********************************************************************************************************************************
*** Print of Delft3D-FLOW for Run f34 - Simulation date: 2015-05-18  16:52:04  page     1                                       ***
*** Deltares, FLOW2D3D Version 6.01.15.5093, May 18 2015, 16:51:44                                                              ***
*** User: Unknown                                                                                                               ***
***********************************************************************************************************************************

***********************************************************************************************************************************
*** Print of Delft3D-FLOW for Run f34 - Simulation date: 2015-05-18  16:54:52  page     1                                       ***
*** Deltares, FLOW2D3D Version 6.01.15.5093, May 18 2015, 16:53:18                                                              ***
*** User: Unknown                                                                                                               ***
***********************************************************************************************************************************

***********************************************************************************************************************************
*** Print of Delft3D-FLOW for Run f34 - Simulation date: 2015-05-18  16:55:42  page     1                                       ***
*** Deltares, FLOW2D3D Version 6.01.15.5093, May 18 2015, 16:53:18                                                              ***
*** User: Unknown                                                                                                               ***
***********************************************************************************************************************************

***********************************************************************************************************************************
*** Print of Delft3D-FLOW for Run f34 - Simulation date: 2015-05-18  17:14:05  page     1                                       ***
*** Deltares, FLOW2D3D Version 6.01.15.5093, May 18 2015, 17:13:57                                                              ***
*** User: Unknown                                                                                                               ***
***********************************************************************************************************************************

***********************************************************************************************************************************
*** Print of Delft3D-FLOW for Run f34 - Simulation date: 2015-05-18  17:18:04  page     1                                       ***
*** Deltares, FLOW2D3D Version 6.01.15.5093, May 18 2015, 17:13:57                                                              ***
*** User: Unknown                                                                                                               ***
***********************************************************************************************************************************

***********************************************************************************************************************************
*** Print of Delft3D-FLOW for Run f34 - Simulation date: 2015-05-18  17:18:42  page     1                                       ***
*** Deltares, FLOW2D3D Version 6.01.15.5093, May 18 2015, 17:18:33                                                              ***
*** User: Unknown                                                                                                               ***
***********************************************************************************************************************************

***********************************************************************************************************************************
*** Print of Delft3D-FLOW for Run f34 - Simulation date: 2015-05-18  17:40:00  page     1                                       ***
*** Deltares, FLOW2D3D Version 6.01.15.5093, May 18 2015, 17:39:53                                                              ***
*** User: Unknown                                                                                                               ***
***********************************************************************************************************************************

***********************************************************************************************************************************
*** Print of Delft3D-FLOW for Run f34 - Simulation date: 2015-05-18  17:40:40  page     1                                       ***
*** Deltares, FLOW2D3D Version 6.01.15.5093, May 18 2015, 17:40:33                                                              ***
*** User: Unknown                                                                                                               ***
***********************************************************************************************************************************

***********************************************************************************************************************************
*** Print of Delft3D-FLOW for Run f34 - Simulation date: 2015-05-18  22:12:03  page     1                                       ***
*** Deltares, FLOW2D3D Version 6.01.15.5101, May 18 2015, 22:05:51                                                              ***
*** User: Unknown                                                                                                               ***
***********************************************************************************************************************************

***********************************************************************************************************************************
*** Print of Delft3D-FLOW for Run f34 - Simulation date: 2015-05-18  22:21:01  page     1                                       ***
*** Deltares, FLOW2D3D Version 6.01.15.5101, May 18 2015, 22:20:48                                                              ***
*** User: Unknown                                                                                                               ***
***********************************************************************************************************************************

***********************************************************************************************************************************
*** Print of Delft3D-FLOW for Run f34 - Simulation date: 2015-05-18  22:25:13  page     1                                       ***
*** Deltares, FLOW2D3D Version 6.01.15.5101, May 18 2015, 22:24:58                                                              ***
*** User: Unknown                                                                                                               ***
***********************************************************************************************************************************

***********************************************************************************************************************************
*** Print of Delft3D-FLOW for Run f34 - Simulation date: 2015-05-18  22:28:36  page     1                                       ***
*** Deltares, FLOW2D3D Version 6.01.15.5101, May 18 2015, 22:24:58                                                              ***
*** User: Unknown                                                                                                               ***
***********************************************************************************************************************************

***********************************************************************************************************************************
*** Print of Delft3D-FLOW for Run f34 - Simulation date: 2015-05-18  22:45:04  page     1                                       ***
*** Deltares, FLOW2D3D Version 6.01.15.5101, May 18 2015, 22:44:56                                                              ***
*** User: Unknown                                                                                                               ***
***********************************************************************************************************************************

***********************************************************************************************************************************
*** Print of Delft3D-FLOW for Run f34 - Simulation date: 2015-05-18  22:48:17  page     1                                       ***
*** Deltares, FLOW2D3D Version 6.01.15.5101, May 18 2015, 22:44:56                                                              ***
*** User: Unknown                                                                                                               ***
***********************************************************************************************************************************

***********************************************************************************************************************************
*** Print of Delft3D-FLOW for Run f34 - Simulation date: 2015-05-18  22:49:07  page     1                                       ***
*** Deltares, FLOW2D3D Version 6.01.15.5101, May 18 2015, 22:44:56                                                              ***
*** User: Unknown                                                                                                               ***
***********************************************************************************************************************************
                                                                                                                                   
 Selected Water-levels at NST=   150 ( =  750.00 Elapsed min. ,Date : 1990-08-05 time : 12:30:00 )                                 
     M    N       Water-level   at station                                                                                         
                                                                                                                                   
                                                                                                                                   
     4   17            1.4893   W1                  
     9   17            1.4062   W2                  
    12   17            1.3481   W3                  
     9   11            1.0495   W4                  
     9    7            0.9622   W5                  
                                                                                                                                   
 Selected Currents                  at NST=   150 ( =  750.00 Elapsed min. ,Date : 1990-08-05 time : 12:30:00 )                    
     M    N    K  Current in Zeta point                             at station                                                     
                    Magnitude   Direction       U-KSI       V-ETA                                                                  
                                                                                                                                   
     4   17    1       0.1188       239.4     -0.1188     -0.0013   W1                  
     9   17    1       0.4568       256.8     -0.0779     -0.4501   W2                  
    12   17    1       0.4324       219.3     -0.0572     -0.4285   W3                  
     9   11    1       0.9349       271.1     -0.1526     -0.9223   W4                  
     9    7    1       0.1313       280.2     -0.0223     -0.1294   W5                  
     4   17    2       0.1091       239.7     -0.1091     -0.0019   W1                  
     9   17    2       0.4255       257.3     -0.0691     -0.4199   W2                  
    12   17    2       0.4017       219.6     -0.0514     -0.3984   W3                  
     9   11    2       0.8690       271.2     -0.1402     -0.8576   W4                  
     9    7    2       0.1217       280.3     -0.0204     -0.1200   W5                  
     4   17    3       0.0978       240.1     -0.0977     -0.0023   W1                  
     9   17    3       0.3874       257.7     -0.0599     -0.3827   W2                  
    12   17    3       0.3644       219.8     -0.0451     -0.3616   W3                  
     9   11    3       0.7890       271.3     -0.1260     -0.7789   W4                  
     9    7    3       0.1104       280.3     -0.0185     -0.1088   W5                  
     4   17    4       0.0831       240.4     -0.0831     -0.0025   W1                  
     9   17    4       0.3354       258.2     -0.0494     -0.3317   W2                  
    12   17    4       0.3136       220.0     -0.0375     -0.3114   W3                  
     9   11    4       0.6801       271.3     -0.1080     -0.6715   W4                  
     9    7    4       0.0953       280.2     -0.0162     -0.0939   W5                  
     4   17    5       0.0609       240.9     -0.0609     -0.0023   W1                  
     9   17    5       0.2523       258.6     -0.0353     -0.2499   W2                  
    12   17    5       0.2325       220.3     -0.0268     -0.2309   W3                  
     9   11    5       0.5061       271.3     -0.0807     -0.4996   W4                  
     9    7    5       0.0718       279.4     -0.0132     -0.0705   W5                  
                                                                                                                                   
 Selected W-velocities              at NST=   150 ( =  750.00 Elapsed min. ,Date : 1990-08-05 time : 12:30:00 )                    
     M    N    K   W-velocity   at station                                                                                         
                                                                                                                                   
                                                                                                                                   
     4   17    1 -1.51744E-05   W1                  
     9   17    1 -3.08274E-05   W2                  
    12   17    1 -2.90359E-05   W3                  
     9   11    1  6.39131E-05   W4                  
     9    7    1  9.32074E-05   W5                  
     4   17    2 -3.91931E-06   W1                  
     9   17    2 -1.69695E-05   W2                  
    12   17    2  2.88731E-06   W3                  
     9   11    2  9.35302E-05   W4                  
     9    7    2  6.33187E-05   W5                  
     4   17    3  2.95636E-06   W1                  

***********************************************************************************************************************************
*** Print of Delft3D-FLOW for Run f34 - Simulation date: 2015-05-18  22:49:07  pa    2  1                                       ***
*** Deltares, FLOW2D3D Version 6.01.15.5101, May 18 2015, 22:44:56                                                              ***
*** User: Unknown                                                                                                               ***
***********************************************************************************************************************************
                                                                                                                                   
 Selected W-velocities              at NST=   150 ( =  750.00 Elapsed min. ,Date : 1990-08-05 time : 12:30:00 )                    
     M    N    K   W-velocity   at station                                                                                         
                                                                                                                                   
                                                                                                                                   

     9   17    3 -8.16751E-06   W2                  
    12   17    3  2.05015E-05   W3                  
     9   11    3  1.06783E-04   W4                  
     9    7    3  4.56193E-05   W5                  
     4   17    4  6.19216E-06   W1                  
     9   17    4 -3.07400E-06   W2                  
    12   17    4  2.69706E-05   W3                  
     9   11    4  1.04397E-04   W4                  
     9    7    4  3.45578E-05   W5                  
     4   17    5  6.08745E-06   W1                  
     9   17    5 -6.84152E-07   W2                  
    12   17    5  2.34353E-05   W3                  
     9   11    5  8.29924E-05   W4                  
     9    7    5  2.53233E-05   W5                  
                                                                                                                                   
 Selected Concentrations            at NST=   150 ( =  750.00 Elapsed min. ,Date : 1990-08-05 time : 12:30:00 )                    
     M    N    K  Concentrations for L=1,LSTSCI                                                                                    
                  at station                      1            2                                                                   
                                                                                                                                   
     4   17    1  W1                    3.10000E+01  1.50000E+01
     9   17    1  W2                    3.10000E+01  1.50000E+01
    12   17    1  W3                    3.10000E+01  1.50000E+01
     9   11    1  W4                    3.10000E+01  1.50000E+01
     9    7    1  W5                    3.10000E+01  1.50000E+01
     4   17    2  W1                    3.10000E+01  1.50000E+01
     9   17    2  W2                    3.10000E+01  1.50000E+01
    12   17    2  W3                    3.10000E+01  1.50000E+01
     9   11    2  W4                    3.10000E+01  1.50000E+01
     9    7    2  W5                    3.10000E+01  1.50000E+01
     4   17    3  W1                    3.10000E+01  1.50000E+01
     9   17    3  W2                    3.10000E+01  1.50000E+01
    12   17    3  W3                    3.10000E+01  1.50000E+01
     9   11    3  W4                    3.10000E+01  1.50000E+01
     9    7    3  W5                    3.10000E+01  1.50000E+01
     4   17    4  W1                    3.10000E+01  1.50000E+01
     9   17    4  W2                    3.10000E+01  1.50000E+01
    12   17    4  W3                    3.10000E+01  1.50000E+01
     9   11    4  W4                    3.10000E+01  1.50000E+01
     9    7    4  W5                    3.10000E+01  1.50000E+01
     4   17    5  W1                    3.10000E+01  1.50000E+01
     9   17    5  W2                    3.10000E+01  1.50000E+01
    12   17    5  W3                    3.10000E+01  1.50000E+01
     9   11    5  W4                    3.10000E+01  1.50000E+01
     9    7    5  W5                    3.10000E+01  1.50000E+01
                                                                                                                                   
 Selected Vert.Eddy Visc/Diff &Rich at NST=   150 ( =  750.00 Elapsed min. ,Date : 1990-08-05 time : 12:30:00 )                    
     M    N    K   Vert. Eddy   Vert. Eddy   Richardson   at station                                                               
                    Viscosity  Diffusivity       Number                                                                            
                                                                                                                                   
     4   17    0  0.00000E+00  0.00000E+00  0.00000E+00   W1                  
     9   17    0  0.00000E+00  0.00000E+00  0.00000E+00   W2                  
    12   17    0  0.00000E+00  0.00000E+00  0.00000E+00   W3                  
     9   11    0  0.00000E+00  0.00000E+00  0.00000E+00   W4                  
     9    7    0  0.00000E+00  0.00000E+00  0.00000E+00   W5                  
     4   17    1  3.30614E-03  3.30614E-03  0.00000E+00   W1                  
     9   17    1  1.29931E-02  1.29931E-02  0.00000E+00   W2                  
    12   17    1  9.83836E-03  9.83836E-03  0.00000E+00   W3                  

***********************************************************************************************************************************
*** Print of Delft3D-FLOW for Run f34 - Simulation date: 2015-05-18  22:49:07  pa    3  1                                       ***
*** Deltares, FLOW2D3D Version 6.01.15.5101, May 18 2015, 22:44:56                                                              ***
*** User: Unknown                                                                                                               ***
***********************************************************************************************************************************
                                                                                                                                   
 Selected Vert.Eddy Visc/Diff &Rich at NST=   150 ( =  750.00 Elapsed min. ,Date : 1990-08-05 time : 12:30:00 )                    
     M    N    K   Vert. Eddy   Vert. Eddy   Richardson   at station                                                               
                    Viscosity  Diffusivity       Number                                                                            
                                                                                                                                   

     9   11    1  2.47291E-02  2.47291E-02  0.00000E+00   W4                  
     9    7    1  4.35287E-03  4.35287E-03  0.00000E+00   W5                  
     4   17    2  2.90782E-03  2.90782E-03  0.00000E+00   W1                  
     9   17    2  1.19699E-02  1.19699E-02  0.00000E+00   W2                  
    12   17    2  9.02559E-03  9.02559E-03  0.00000E+00   W3                  
     9   11    2  2.27069E-02  2.27069E-02  0.00000E+00   W4                  
     9    7    2  3.96556E-03  3.96556E-03  2.85050E-12   W5                  
     4   17    3  1.59462E-03  1.59462E-03  0.00000E+00   W1                  
     9   17    3  6.90259E-03  6.90259E-03  0.00000E+00   W2                  
    12   17    3  5.18165E-03  5.18165E-03  0.00000E+00   W3                  
     9   11    3  1.30671E-02  1.30671E-02  0.00000E+00   W4                  
     9    7    3  2.26638E-03  2.26638E-03  0.00000E+00   W5                  
     4   17    4  5.65459E-04  5.65459E-04  0.00000E+00   W1                  
     9   17    4  2.57155E-03  2.57155E-03  0.00000E+00   W2                  
    12   17    4  1.92546E-03  1.92546E-03  0.00000E+00   W3                  
     9   11    4  4.85238E-03  4.85238E-03  0.00000E+00   W4                  
     9    7    4  8.39059E-04  8.39059E-04  0.00000E+00   W5                  
     4   17    5  4.37595E-06  4.37595E-06  0.00000E+00   W1                  
     9   17    5  1.64843E-05  1.64843E-05  0.00000E+00   W2                  
    12   17    5  1.63995E-05  1.63995E-05  0.00000E+00   W3                  
     9   11    5  3.31330E-05  3.31330E-05  0.00000E+00   W4                  
     9    7    5  4.96950E-06  4.96950E-06  0.00000E+00   W5                  
                                                                                                                                   
 Selected Density                   at NST=   150 ( =  750.00 Elapsed min. ,Date : 1990-08-05 time : 12:30:00 )                    
     M    N    K  Density       at station                                                                                         
                                                                                                                                   
                                                                                                                                   
     4   17    1     1022.891   W1                  
     9   17    1     1022.891   W2                  
    12   17    1     1022.891   W3                  
     9   11    1     1022.891   W4                  
     9    7    1     1022.891   W5                  
     4   17    2     1022.891   W1                  
     9   17    2     1022.891   W2                  
    12   17    2     1022.891   W3                  
     9   11    2     1022.891   W4                  
     9    7    2     1022.891   W5                  
     4   17    3     1022.891   W1                  
     9   17    3     1022.891   W2                  
    12   17    3     1022.891   W3                  
     9   11    3     1022.891   W4                  
     9    7    3     1022.891   W5                  
     4   17    4     1022.891   W1                  
     9   17    4     1022.891   W2                  
    12   17    4     1022.891   W3                  
     9   11    4     1022.891   W4                  
     9    7    4     1022.891   W5                  
     4   17    5     1022.891   W1                  
     9   17    5     1022.891   W2                  
    12   17    5     1022.891   W3                  
     9   11    5     1022.891   W4                  
     9    7    5     1022.891   W5                  

***********************************************************************************************************************************
*** Print of Delft3D-FLOW for Run f34 - Simulation date: 2015-05-18  22:49:07  pa    4  1                                       ***
*** Deltares, FLOW2D3D Version 6.01.15.5101, May 18 2015, 22:44:56                                                              ***
*** User: Unknown                                                                                                               ***
***********************************************************************************************************************************
                                                                                                                                   
 Transports at Cross sections       at NST=   150 ( =  750.00 Elapsed min. ,Date : 1990-08-05 time : 12:30:00 )                    
    M1   N1   M2   N2 at cross-section   current volume total volume     total advective total diffusive      total mass           
                                              transport     tranport L=  mass  transport mass  transport        tranport           
                                                                                                                                   

     7    7    7   14 (7,7)..(7,14)        -1.49681E+04  1.01912E+08   1     3.15927E+09    -8.79191E-08     3.15927E+09
                                                                       2     1.52868E+09     5.07565E-08     1.52868E+09
     8   14   14   14 Entrance             -2.54234E+04  2.05793E+08   1     6.37958E+09     4.43382E-09     6.37958E+09
                                                                       2     3.08689E+09    -3.20340E-08     3.08689E+09
     2   21   14   21 Boundary             -7.86740E+03  3.90160E+08   1     1.20950E+10     4.35907E-07     1.20950E+10
                                                                       2     5.85241E+09     1.62514E-08     5.85241E+09
                                                                                                                                   
                                                                                                                                   
 Selected Water-levels at NST=   180 ( =  900.00 Elapsed min. ,Date : 1990-08-05 time : 15:00:00 )                                 
     M    N       Water-level   at station                                                                                         
                                                                                                                                   
                                                                                                                                   
     4   17            0.4399   W1                  
     9   17            0.3648   W2                  
    12   17            0.3357   W3                  
     9   11            0.9082   W4                  
     9    7            1.0067   W5                  
                                                                                                                                   
 Selected Currents                  at NST=   180 ( =  900.00 Elapsed min. ,Date : 1990-08-05 time : 15:00:00 )                    
     M    N    K  Current in Zeta point                             at station                                                     
                    Magnitude   Direction       U-KSI       V-ETA                                                                  
                                                                                                                                   
     4   17    1       0.3247        74.2      0.3129      0.0870   W1                  
     9   17    1       0.8112        73.8      0.1807      0.7908   W2                  
    12   17    1       0.7846        39.5      0.1015      0.7780   W3                  
     9   11    1       0.6243        90.3      0.1105      0.6145   W4                  
     9    7    1       0.0522        76.9      0.0285      0.0438   W5                  
     4   17    2       0.3015        74.5      0.2901      0.0822   W1                  
     9   17    2       0.7552        73.8      0.1679      0.7363   W2                  
    12   17    2       0.7279        39.5      0.0936      0.7219   W3                  
     9   11    2       0.5841        90.4      0.1023      0.5750   W4                  
     9    7    2       0.0490        79.4      0.0249      0.0422   W5                  
     4   17    3       0.2730        74.8      0.2623      0.0757   W1                  
     9   17    3       0.6865        73.8      0.1523      0.6693   W2                  
    12   17    3       0.6587        39.6      0.0841      0.6533   W3                  
     9   11    3       0.5333        90.5      0.0926      0.5252   W4                  
     9    7    3       0.0449        81.9      0.0211      0.0396   W5                  
     4   17    4       0.2337        75.1      0.2242      0.0660   W1                  
     9   17    4       0.5919        73.9      0.1310      0.5773   W2                  
    12   17    4       0.5639        39.6      0.0715      0.5594   W3                  
     9   11    4       0.4620        90.5      0.0798      0.4550   W4                  
     9    7    4       0.0392        84.1      0.0171      0.0352   W5                  
     4   17    5       0.1706        75.5      0.1633      0.0493   W1                  
     9   17    5       0.4395        73.9      0.0970      0.4287   W2                  
    12   17    5       0.4115        39.7      0.0517      0.4083   W3                  
     9   11    5       0.3448        90.5      0.0599      0.3396   W4                  
     9    7    5       0.0299        86.0      0.0122      0.0274   W5                  
                                                                                                                                   
 Selected W-velocities              at NST=   180 ( =  900.00 Elapsed min. ,Date : 1990-08-05 time : 15:00:00 )                    
     M    N    K   W-velocity   at station                                                                                         
                                                                                                                                   
                                                                                                                                   
     4   17    1 -1.60175E-04   W1                  
     9   17    1 -1.72653E-04   W2                  
    12   17    1 -1.90612E-04   W3                  
     9   11    1 -1.18532E-04   W4                  
     9    7    1 -7.68872E-05   W5                  

***********************************************************************************************************************************
*** Print of Delft3D-FLOW for Run f34 - Simulation date: 2015-05-18  22:49:07  pa    5  1                                       ***
*** Deltares, FLOW2D3D Version 6.01.15.5101, May 18 2015, 22:44:56                                                              ***
*** User: Unknown                                                                                                               ***
***********************************************************************************************************************************
                                                                                                                                   
 Selected W-velocities              at NST=   180 ( =  900.00 Elapsed min. ,Date : 1990-08-05 time : 15:00:00 )                    
     M    N    K   W-velocity   at station                                                                                         
                                                                                                                                   
                                                                                                                                   

     4   17    2 -9.67483E-05   W1                  
     9   17    2 -9.27856E-05   W2                  
    12   17    2 -1.28772E-04   W3                  
     9   11    2 -1.03843E-04   W4                  
     9    7    2 -4.56454E-05   W5                  
     4   17    3 -5.63442E-05   W1                  
     9   17    3 -4.31124E-05   W2                  
    12   17    3 -8.73132E-05   W3                  
     9   11    3 -9.04947E-05   W4                  
     9    7    3 -2.56709E-05   W5                  
     4   17    4 -3.18694E-05   W1                  
     9   17    4 -1.53756E-05   W2                  
    12   17    4 -5.92112E-05   W3                  
     9   11    4 -7.62324E-05   W4                  
     9    7    4 -1.38295E-05   W5                  
     4   17    5 -1.71045E-05   W1                  
     9   17    5 -3.13167E-06   W2                  
    12   17    5 -3.71705E-05   W3                  
     9   11    5 -5.63787E-05   W4                  
     9    7    5 -7.34275E-06   W5                  
                                                                                                                                   
 Selected Concentrations            at NST=   180 ( =  900.00 Elapsed min. ,Date : 1990-08-05 time : 15:00:00 )                    
     M    N    K  Concentrations for L=1,LSTSCI                                                                                    
                  at station                      1            2                                                                   
                                                                                                                                   
     4   17    1  W1                    3.10000E+01  1.50000E+01
     9   17    1  W2                    3.10000E+01  1.50000E+01
    12   17    1  W3                    3.10000E+01  1.50000E+01
     9   11    1  W4                    3.10000E+01  1.50000E+01
     9    7    1  W5                    3.10000E+01  1.50000E+01
     4   17    2  W1                    3.10000E+01  1.50000E+01
     9   17    2  W2                    3.10000E+01  1.50000E+01
    12   17    2  W3                    3.10000E+01  1.50000E+01
     9   11    2  W4                    3.10000E+01  1.50000E+01
     9    7    2  W5                    3.10000E+01  1.50000E+01
     4   17    3  W1                    3.10000E+01  1.50000E+01
     9   17    3  W2                    3.10000E+01  1.50000E+01
    12   17    3  W3                    3.10000E+01  1.50000E+01
     9   11    3  W4                    3.10000E+01  1.50000E+01
     9    7    3  W5                    3.10000E+01  1.50000E+01
     4   17    4  W1                    3.10000E+01  1.50000E+01
     9   17    4  W2                    3.10000E+01  1.50000E+01
    12   17    4  W3                    3.10000E+01  1.50000E+01
     9   11    4  W4                    3.10000E+01  1.50000E+01
     9    7    4  W5                    3.10000E+01  1.50000E+01
     4   17    5  W1                    3.10000E+01  1.50000E+01
     9   17    5  W2                    3.10000E+01  1.50000E+01
    12   17    5  W3                    3.10000E+01  1.50000E+01
     9   11    5  W4                    3.10000E+01  1.50000E+01
     9    7    5  W5                    3.10000E+01  1.50000E+01
                                                                                                                                   
 Selected Vert.Eddy Visc/Diff &Rich at NST=   180 ( =  900.00 Elapsed min. ,Date : 1990-08-05 time : 15:00:00 )                    
     M    N    K   Vert. Eddy   Vert. Eddy   Richardson   at station                                                               
                    Viscosity  Diffusivity       Number                                                                            
                                                                                                                                   
     4   17    0  0.00000E+00  0.00000E+00  0.00000E+00   W1                  
     9   17    0  0.00000E+00  0.00000E+00  0.00000E+00   W2                  

***********************************************************************************************************************************
*** Print of Delft3D-FLOW for Run f34 - Simulation date: 2015-05-18  22:49:07  pa    6  1                                       ***
*** Deltares, FLOW2D3D Version 6.01.15.5101, May 18 2015, 22:44:56                                                              ***
*** User: Unknown                                                                                                               ***
***********************************************************************************************************************************
                                                                                                                                   
 Selected Vert.Eddy Visc/Diff &Rich at NST=   180 ( =  900.00 Elapsed min. ,Date : 1990-08-05 time : 15:00:00 )                    
     M    N    K   Vert. Eddy   Vert. Eddy   Richardson   at station                                                               
                    Viscosity  Diffusivity       Number                                                                            
                                                                                                                                   

    12   17    0  0.00000E+00  0.00000E+00  0.00000E+00   W3                  
     9   11    0  0.00000E+00  0.00000E+00  0.00000E+00   W4                  
     9    7    0  0.00000E+00  0.00000E+00  0.00000E+00   W5                  
     4   17    1  5.72678E-03  5.72678E-03  0.00000E+00   W1                  
     9   17    1  1.85008E-02  1.85008E-02  0.00000E+00   W2                  
    12   17    1  1.33389E-02  1.33389E-02  0.00000E+00   W3                  
     9   11    1  1.57002E-02  1.57002E-02  0.00000E+00   W4                  
     9    7    1  1.31436E-03  1.31436E-03  0.00000E+00   W5                  
     4   17    2  5.31798E-03  5.31798E-03  0.00000E+00   W1                  
     9   17    2  1.70438E-02  1.70438E-02  0.00000E+00   W2                  
    12   17    2  1.22885E-02  1.22885E-02  0.00000E+00   W3                  
     9   11    2  1.44638E-02  1.44638E-02  0.00000E+00   W4                  
     9    7    2  1.22281E-03  1.22281E-03  0.00000E+00   W5                  
     4   17    3  3.09010E-03  3.09010E-03  2.83718E-13   W1                  
     9   17    3  9.82854E-03  9.82854E-03  0.00000E+00   W2                  
    12   17    3  7.08629E-03  7.08629E-03  0.00000E+00   W3                  
     9   11    3  8.34075E-03  8.34075E-03  0.00000E+00   W4                  
     9    7    3  7.22270E-04  7.22270E-04  0.00000E+00   W5                  
     4   17    4  1.16071E-03  1.16071E-03 -5.78859E-14   W1                  
     9   17    4  3.66161E-03  3.66161E-03  0.00000E+00   W2                  
    12   17    4  2.63999E-03  2.63999E-03  0.00000E+00   W3                  
     9   11    4  3.10734E-03  3.10734E-03  0.00000E+00   W4                  
     9    7    4  2.76992E-04  2.76992E-04  0.00000E+00   W5                  
     4   17    5  1.21482E-05  1.21482E-05  0.00000E+00   W1                  
     9   17    5  2.89195E-05  2.89195E-05  0.00000E+00   W2                  
    12   17    5  2.98543E-05  2.98543E-05  0.00000E+00   W3                  
     9   11    5  2.19414E-05  2.19414E-05  0.00000E+00   W4                  
     9    7    5  2.04612E-06  2.04612E-06  0.00000E+00   W5                  
                                                                                                                                   
 Selected Density                   at NST=   180 ( =  900.00 Elapsed min. ,Date : 1990-08-05 time : 15:00:00 )                    
     M    N    K  Density       at station                                                                                         
                                                                                                                                   
                                                                                                                                   
     4   17    1     1022.891   W1                  
     9   17    1     1022.891   W2                  
    12   17    1     1022.891   W3                  
     9   11    1     1022.891   W4                  
     9    7    1     1022.891   W5                  
     4   17    2     1022.891   W1                  
     9   17    2     1022.891   W2                  
    12   17    2     1022.891   W3                  
     9   11    2     1022.891   W4                  
     9    7    2     1022.891   W5                  
     4   17    3     1022.891   W1                  
     9   17    3     1022.891   W2                  
    12   17    3     1022.891   W3                  
     9   11    3     1022.891   W4                  
     9    7    3     1022.891   W5                  
     4   17    4     1022.891   W1                  
     9   17    4     1022.891   W2                  
    12   17    4     1022.891   W3                  
     9   11    4     1022.891   W4                  
     9    7    4     1022.891   W5                  
     4   17    5     1022.891   W1                  
     9   17    5     1022.891   W2                  
    12   17    5     1022.891   W3                  
     9   11    5     1022.891   W4                  

***********************************************************************************************************************************
*** Print of Delft3D-FLOW for Run f34 - Simulation date: 2015-05-18  22:49:07  pa    7  1                                       ***
*** Deltares, FLOW2D3D Version 6.01.15.5101, May 18 2015, 22:44:56                                                              ***
*** User: Unknown                                                                                                               ***
***********************************************************************************************************************************
                                                                                                                                   
 Selected Density                   at NST=   180 ( =  900.00 Elapsed min. ,Date : 1990-08-05 time : 15:00:00 )                    
     M    N    K  Density       at station                                                                                         
                                                                                                                                   
                                                                                                                                   

     9    7    5     1022.891   W5                  
                                                                                                                                   
 Transports at Cross sections       at NST=   180 ( =  900.00 Elapsed min. ,Date : 1990-08-05 time : 15:00:00 )                    
    M1   N1   M2   N2 at cross-section   current volume total volume     total advective total diffusive      total mass           
                                              transport     tranport L=  mass  transport mass  transport        tranport           
                                                                                                                                   
     7    7    7   14 (7,7)..(7,14)         1.09582E+04  9.81988E+07   1     3.04416E+09    -2.09434E-07     3.04416E+09
                                                                       2     1.47298E+09    -4.99448E-08     1.47298E+09
     8   14   14   14 Entrance              2.23192E+04  2.13413E+08   1     6.61580E+09     9.09473E-09     6.61580E+09
                                                                       2     3.20119E+09    -1.88073E-08     3.20119E+09
     2   21   14   21 Boundary              9.56201E+04  8.54662E+08   1     2.64945E+10     3.14033E-07     2.64945E+10
                                                                       2     1.28199E+10    -3.09619E-08     1.28199E+10
                                                                                                                                   
                                                                                                                                   
 Selected Water-levels at NST=   210 ( = 1050.00 Elapsed min. ,Date : 1990-08-05 time : 17:30:00 )                                 
     M    N       Water-level   at station                                                                                         
                                                                                                                                   
                                                                                                                                   
     4   17           -1.0620   W1                  
     9   17           -0.9658   W2                  
    12   17           -0.8831   W3                  
     9   11            0.0096   W4                  
     9    7            0.1508   W5                  
                                                                                                                                   
 Selected Currents                  at NST=   210 ( = 1050.00 Elapsed min. ,Date : 1990-08-05 time : 17:30:00 )                    
     M    N    K  Current in Zeta point                             at station                                                     
                    Magnitude   Direction       U-KSI       V-ETA                                                                  
                                                                                                                                   
     4   17    1       0.3239       128.2      0.1136      0.3033   W1                  
     9   17    1       0.9552        90.3     -0.0603      0.9533   W2                  
    12   17    1       0.6933        53.5     -0.0790      0.6887   W3                  
     9   11    1       0.7893        93.9      0.0902      0.7842   W4                  
     9    7    1       0.0848       105.2      0.0070      0.0845   W5                  
     4   17    2       0.2990       128.2      0.1046      0.2801   W1                  
     9   17    2       0.8845        90.3     -0.0560      0.8828   W2                  
    12   17    2       0.6400        53.5     -0.0732      0.6358   W3                  
     9   11    2       0.7348        93.9      0.0835      0.7301   W4                  
     9    7    2       0.0790       105.3      0.0064      0.0787   W5                  
     4   17    3       0.2686       128.3      0.0937      0.2517   W1                  
     9   17    3       0.7987        90.3     -0.0508      0.7970   W2                  
    12   17    3       0.5750        53.5     -0.0660      0.5712   W3                  
     9   11    3       0.6674        94.0      0.0756      0.6631   W4                  
     9    7    3       0.0718       105.3      0.0058      0.0716   W5                  
     4   17    4       0.2267       128.4      0.0788      0.2126   W1                  
     9   17    4       0.6816        90.3     -0.0435      0.6802   W2                  
    12   17    4       0.4858        53.5     -0.0558      0.4826   W3                  
     9   11    4       0.5741        94.0      0.0650      0.5704   W4                  
     9    7    4       0.0620       105.1      0.0052      0.0618   W5                  
     4   17    5       0.1586       128.5      0.0548      0.1488   W1                  
     9   17    5       0.4942        90.3     -0.0317      0.4932   W2                  
    12   17    5       0.3423        53.5     -0.0392      0.3400   W3                  
     9   11    5       0.4229        93.9      0.0484      0.4201   W4                  
     9    7    5       0.0463       104.3      0.0046      0.0461   W5                  

***********************************************************************************************************************************
*** Print of Delft3D-FLOW for Run f34 - Simulation date: 2015-05-18  22:49:07  pa    8  1                                       ***
*** Deltares, FLOW2D3D Version 6.01.15.5101, May 18 2015, 22:44:56                                                              ***
*** User: Unknown                                                                                                               ***
***********************************************************************************************************************************
                                                                                                                                   
 Selected W-velocities              at NST=   210 ( = 1050.00 Elapsed min. ,Date : 1990-08-05 time : 17:30:00 )                    
     M    N    K   W-velocity   at station                                                                                         
                                                                                                                                   
                                                                                                                                   

     4   17    1 -1.05956E-04   W1                  
     9   17    1 -1.42876E-04   W2                  
    12   17    1 -1.46992E-04   W3                  
     9   11    1 -1.24574E-04   W4                  
     9    7    1 -6.86905E-05   W5                  
     4   17    2 -7.07761E-05   W1                  
     9   17    2 -7.61592E-05   W2                  
    12   17    2 -1.07404E-04   W3                  
     9   11    2 -1.17615E-04   W4                  
     9    7    2 -4.63523E-05   W5                  
     4   17    3 -4.72846E-05   W1                  
     9   17    3 -3.50214E-05   W2                  
    12   17    3 -7.92771E-05   W3                  
     9   11    3 -1.07927E-04   W4                  
     9    7    3 -3.17334E-05   W5                  
     4   17    4 -3.13162E-05   W1                  
     9   17    4 -1.22588E-05   W2                  
    12   17    4 -5.77962E-05   W3                  
     9   11    4 -9.36956E-05   W4                  
     9    7    4 -2.21854E-05   W5                  
     4   17    5 -1.84831E-05   W1                  
     9   17    5 -2.33853E-06   W2                  
    12   17    5 -3.70753E-05   W3                  
     9   11    5 -6.97907E-05   W4                  
     9    7    5 -1.50275E-05   W5                  
                                                                                                                                   
 Selected Concentrations            at NST=   210 ( = 1050.00 Elapsed min. ,Date : 1990-08-05 time : 17:30:00 )                    
     M    N    K  Concentrations for L=1,LSTSCI                                                                                    
                  at station                      1            2                                                                   
                                                                                                                                   
     4   17    1  W1                    3.10000E+01  1.50000E+01
     9   17    1  W2                    3.10000E+01  1.50000E+01
    12   17    1  W3                    3.10000E+01  1.50000E+01
     9   11    1  W4                    3.10000E+01  1.50000E+01
     9    7    1  W5                    3.10000E+01  1.50000E+01
     4   17    2  W1                    3.10000E+01  1.50000E+01
     9   17    2  W2                    3.10000E+01  1.50000E+01
    12   17    2  W3                    3.10000E+01  1.50000E+01
     9   11    2  W4                    3.10000E+01  1.50000E+01
     9    7    2  W5                    3.10000E+01  1.50000E+01
     4   17    3  W1                    3.10000E+01  1.50000E+01
     9   17    3  W2                    3.10000E+01  1.50000E+01
    12   17    3  W3                    3.10000E+01  1.50000E+01
     9   11    3  W4                    3.10000E+01  1.50000E+01
     9    7    3  W5                    3.10000E+01  1.50000E+01
     4   17    4  W1                    3.10000E+01  1.50000E+01
     9   17    4  W2                    3.10000E+01  1.50000E+01
    12   17    4  W3                    3.10000E+01  1.50000E+01
     9   11    4  W4                    3.10000E+01  1.50000E+01
     9    7    4  W5                    3.10000E+01  1.50000E+01
     4   17    5  W1                    3.10000E+01  1.50000E+01
     9   17    5  W2                    3.10000E+01  1.50000E+01
    12   17    5  W3                    3.10000E+01  1.50000E+01
     9   11    5  W4                    3.10000E+01  1.50000E+01
     9    7    5  W5                    3.10000E+01  1.50000E+01

***********************************************************************************************************************************
*** Print of Delft3D-FLOW for Run f34 - Simulation date: 2015-05-18  22:49:07  pa    9  1                                       ***
*** Deltares, FLOW2D3D Version 6.01.15.5101, May 18 2015, 22:44:56                                                              ***
*** User: Unknown                                                                                                               ***
***********************************************************************************************************************************
                                                                                                                                   
 Selected Vert.Eddy Visc/Diff &Rich at NST=   210 ( = 1050.00 Elapsed min. ,Date : 1990-08-05 time : 17:30:00 )                    
     M    N    K   Vert. Eddy   Vert. Eddy   Richardson   at station                                                               
                    Viscosity  Diffusivity       Number                                                                            
                                                                                                                                   

     4   17    0  0.00000E+00  0.00000E+00  0.00000E+00   W1                  
     9   17    0  0.00000E+00  0.00000E+00  0.00000E+00   W2                  
    12   17    0  0.00000E+00  0.00000E+00  0.00000E+00   W3                  
     9   11    0  0.00000E+00  0.00000E+00  0.00000E+00   W4                  
     9    7    0  0.00000E+00  0.00000E+00  0.00000E+00   W5                  
     4   17    1  3.45255E-03  3.45255E-03  0.00000E+00   W1                  
     9   17    1  1.60729E-02  1.60729E-02  0.00000E+00   W2                  
    12   17    1  7.78238E-03  7.78238E-03  0.00000E+00   W3                  
     9   11    1  1.68881E-02  1.68881E-02  0.00000E+00   W4                  
     9    7    1  2.18174E-03  2.18174E-03  0.00000E+00   W5                  
     4   17    2  3.18673E-03  3.18673E-03  0.00000E+00   W1                  
     9   17    2  1.48072E-02  1.48072E-02  0.00000E+00   W2                  
    12   17    2  7.14627E-03  7.14627E-03  0.00000E+00   W3                  
     9   11    2  1.55581E-02  1.55581E-02  0.00000E+00   W4                  
     9    7    2  2.01289E-03  2.01289E-03  0.00000E+00   W5                  
     4   17    3  1.83507E-03  1.83507E-03  0.00000E+00   W1                  
     9   17    3  8.53875E-03  8.53875E-03  0.00000E+00   W2                  
    12   17    3  4.11783E-03  4.11783E-03  0.00000E+00   W3                  
     9   11    3  8.97179E-03  8.97179E-03  0.00000E+00   W4                  
     9    7    3  1.16208E-03  1.16208E-03  0.00000E+00   W5                  
     4   17    4  6.76001E-04  6.76001E-04  0.00000E+00   W1                  
     9   17    4  3.18110E-03  3.18110E-03  0.00000E+00   W2                  
    12   17    4  1.53410E-03  1.53410E-03  0.00000E+00   W3                  
     9   11    4  3.34243E-03  3.34243E-03  0.00000E+00   W4                  
     9    7    4  4.32887E-04  4.32887E-04  0.00000E+00   W5                  
     4   17    5  1.37348E-05  1.37348E-05  0.00000E+00   W1                  
     9   17    5  3.60643E-05  3.60643E-05  0.00000E+00   W2                  
    12   17    5  2.90285E-05  2.90285E-05  0.00000E+00   W3                  
     9   11    5  2.87698E-05  2.87698E-05  0.00000E+00   W4                  
     9    7    5  3.34145E-06  3.34145E-06  0.00000E+00   W5                  
                                                                                                                                   
 Selected Density                   at NST=   210 ( = 1050.00 Elapsed min. ,Date : 1990-08-05 time : 17:30:00 )                    
     M    N    K  Density       at station                                                                                         
                                                                                                                                   
                                                                                                                                   
     4   17    1     1022.891   W1                  
     9   17    1     1022.891   W2                  
    12   17    1     1022.891   W3                  
     9   11    1     1022.891   W4                  
     9    7    1     1022.891   W5                  
     4   17    2     1022.891   W1                  
     9   17    2     1022.891   W2                  
    12   17    2     1022.891   W3                  
     9   11    2     1022.891   W4                  
     9    7    2     1022.891   W5                  
     4   17    3     1022.891   W1                  
     9   17    3     1022.891   W2                  
    12   17    3     1022.891   W3                  
     9   11    3     1022.891   W4                  
     9    7    3     1022.891   W5                  
     4   17    4     1022.891   W1                  
     9   17    4     1022.891   W2                  
    12   17    4     1022.891   W3                  
     9   11    4     1022.891   W4                  
     9    7    4     1022.891   W5                  
     4   17    5     1022.891   W1                  

***********************************************************************************************************************************
*** Print of Delft3D-FLOW for Run f34 - Simulation date: 2015-05-18  22:49:07  pa   10  1                                       ***
*** Deltares, FLOW2D3D Version 6.01.15.5101, May 18 2015, 22:44:56                                                              ***
*** User: Unknown                                                                                                               ***
***********************************************************************************************************************************
                                                                                                                                   
 Selected Density                   at NST=   210 ( = 1050.00 Elapsed min. ,Date : 1990-08-05 time : 17:30:00 )                    
     M    N    K  Density       at station                                                                                         
                                                                                                                                   
                                                                                                                                   

     9   17    5     1022.891   W2                  
    12   17    5     1022.891   W3                  
     9   11    5     1022.891   W4                  
     9    7    5     1022.891   W5                  
                                                                                                                                   
 Transports at Cross sections       at NST=   210 ( = 1050.00 Elapsed min. ,Date : 1990-08-05 time : 17:30:00 )                    
    M1   N1   M2   N2 at cross-section   current volume total volume     total advective total diffusive      total mass           
                                              transport     tranport L=  mass  transport mass  transport        tranport           
                                                                                                                                   
     7    7    7   14 (7,7)..(7,14)         8.49300E+03  1.86948E+08   1     5.79539E+09    -2.52598E-07     5.79539E+09
                                                                       2     2.80422E+09    -4.03461E-08     2.80422E+09
     8   14   14   14 Entrance              1.70781E+04  3.98717E+08   1     1.23602E+10     2.15113E-08     1.23602E+10
                                                                       2     5.98075E+09    -1.78655E-08     5.98075E+09
     2   21   14   21 Boundary              5.30330E+04  1.57584E+09   1     4.88511E+10     1.42051E-07     4.88511E+10
                                                                       2     2.36376E+10    -1.38271E-07     2.36376E+10
                                                                                                                                   
                                                                                                                                   
 Selected Water-levels at NST=   240 ( = 1200.00 Elapsed min. ,Date : 1990-08-05 time : 20:00:00 )                                 
     M    N       Water-level   at station                                                                                         
                                                                                                                                   
                                                                                                                                   
     4   17           -1.2891   W1                  
     9   17           -0.9848   W2                  
    12   17           -0.9166   W3                  
     9   11           -0.5731   W4                  
     9    7           -0.4440   W5                  
                                                                                                                                   
 Selected Currents                  at NST=   240 ( = 1200.00 Elapsed min. ,Date : 1990-08-05 time : 20:00:00 )                    
     M    N    K  Current in Zeta point                             at station                                                     
                    Magnitude   Direction       U-KSI       V-ETA                                                                  
                                                                                                                                   
     4   17    1       0.2980       271.7     -0.2500     -0.1623   W1                  
     9   17    1       0.3337       121.3     -0.1895      0.2747   W2                  
    12   17    1       0.0609       144.1     -0.0604     -0.0076   W3                  
     9   11    1       0.6943        95.7      0.0584      0.6919   W4                  
     9    7    1       0.0797        92.1      0.0244      0.0758   W5                  
     4   17    2       0.2749       271.8     -0.2303     -0.1501   W1                  
     9   17    2       0.3087       122.0     -0.1784      0.2519   W2                  
    12   17    2       0.0582       146.4     -0.0574     -0.0096   W3                  
     9   11    2       0.6447        95.7      0.0539      0.6425   W4                  
     9    7    2       0.0740        92.2      0.0226      0.0705   W5                  
     4   17    3       0.2465       271.9     -0.2062     -0.1350   W1                  
     9   17    3       0.2787       122.7     -0.1640      0.2253   W2                  
    12   17    3       0.0544       148.4     -0.0533     -0.0109   W3                  
     9   11    3       0.5837        95.7      0.0486      0.5817   W4                  
     9    7    3       0.0671        92.2      0.0204      0.0639   W5                  
     4   17    4       0.2073       272.1     -0.1732     -0.1140   W1                  
     9   17    4       0.2384       123.5     -0.1432      0.1907   W2                  
    12   17    4       0.0484       150.2     -0.0471     -0.0111   W3                  
     9   11    4       0.4995        95.7      0.0416      0.4978   W4                  
     9    7    4       0.0577        92.1      0.0177      0.0549   W5                  
     4   17    5       0.1437       272.4     -0.1195     -0.0797   W1                  
     9   17    5       0.1751       124.9     -0.1083      0.1375   W2                  
    12   17    5       0.0375       151.5     -0.0363     -0.0094   W3                  
     9   11    5       0.3638        95.6      0.0308      0.3625   W4                  
     9    7    5       0.0426        91.4      0.0135      0.0404   W5                  

***********************************************************************************************************************************
*** Print of Delft3D-FLOW for Run f34 - Simulation date: 2015-05-18  22:49:07  pa   11  1                                       ***
*** Deltares, FLOW2D3D Version 6.01.15.5101, May 18 2015, 22:44:56                                                              ***
*** User: Unknown                                                                                                               ***
***********************************************************************************************************************************
                                                                                                                                   
 Selected W-velocities              at NST=   240 ( = 1200.00 Elapsed min. ,Date : 1990-08-05 time : 20:00:00 )                    
     M    N    K   W-velocity   at station                                                                                         
                                                                                                                                   
                                                                                                                                   

     4   17    1  9.02724E-05   W1                  
     9   17    1  1.13116E-04   W2                  
    12   17    1  1.01694E-04   W3                  
     9   11    1 -8.29904E-05   W4                  
     9    7    1 -4.56065E-05   W5                  
     4   17    2  6.01560E-05   W1                  
     9   17    2  6.03678E-05   W2                  
    12   17    2  4.75851E-05   W3                  
     9   11    2 -8.93210E-05   W4                  
     9    7    2 -3.35223E-05   W5                  
     4   17    3  4.00528E-05   W1                  
     9   17    3  2.76915E-05   W2                  
    12   17    3  1.46222E-05   W3                  
     9   11    3 -8.85228E-05   W4                  
     9    7    3 -2.52967E-05   W5                  
     4   17    4  2.63857E-05   W1                  
     9   17    4  9.66258E-06   W2                  
    12   17    4 -2.75915E-06   W3                  
     9   11    4 -8.01385E-05   W4                  
     9    7    4 -1.93432E-05   W5                  
     4   17    5  1.53595E-05   W1                  
     9   17    5  1.96116E-06   W2                  
    12   17    5 -8.44113E-06   W3                  
     9   11    5 -6.04886E-05   W4                  
     9    7    5 -1.38231E-05   W5                  
                                                                                                                                   
 Selected Concentrations            at NST=   240 ( = 1200.00 Elapsed min. ,Date : 1990-08-05 time : 20:00:00 )                    
     M    N    K  Concentrations for L=1,LSTSCI                                                                                    
                  at station                      1            2                                                                   
                                                                                                                                   
     4   17    1  W1                    3.10000E+01  1.50000E+01
     9   17    1  W2                    3.10000E+01  1.50000E+01
    12   17    1  W3                    3.10000E+01  1.50000E+01
     9   11    1  W4                    3.10000E+01  1.50000E+01
     9    7    1  W5                    3.10000E+01  1.50000E+01
     4   17    2  W1                    3.10000E+01  1.50000E+01
     9   17    2  W2                    3.10000E+01  1.50000E+01
    12   17    2  W3                    3.10000E+01  1.50000E+01
     9   11    2  W4                    3.10000E+01  1.50000E+01
     9    7    2  W5                    3.10000E+01  1.50000E+01
     4   17    3  W1                    3.10000E+01  1.50000E+01
     9   17    3  W2                    3.10000E+01  1.50000E+01
    12   17    3  W3                    3.10000E+01  1.50000E+01
     9   11    3  W4                    3.10000E+01  1.50000E+01
     9    7    3  W5                    3.10000E+01  1.50000E+01
     4   17    4  W1                    3.10000E+01  1.50000E+01
     9   17    4  W2                    3.10000E+01  1.50000E+01
    12   17    4  W3                    3.10000E+01  1.50000E+01
     9   11    4  W4                    3.10000E+01  1.50000E+01
     9    7    4  W5                    3.10000E+01  1.50000E+01
     4   17    5  W1                    3.10000E+01  1.50000E+01
     9   17    5  W2                    3.10000E+01  1.50000E+01
    12   17    5  W3                    3.10000E+01  1.50000E+01
     9   11    5  W4                    3.10000E+01  1.50000E+01
     9    7    5  W5                    3.10000E+01  1.50000E+01

***********************************************************************************************************************************
*** Print of Delft3D-FLOW for Run f34 - Simulation date: 2015-05-18  22:49:07  pa   12  1                                       ***
*** Deltares, FLOW2D3D Version 6.01.15.5101, May 18 2015, 22:44:56                                                              ***
*** User: Unknown                                                                                                               ***
***********************************************************************************************************************************
                                                                                                                                   
 Selected Vert.Eddy Visc/Diff &Rich at NST=   240 ( = 1200.00 Elapsed min. ,Date : 1990-08-05 time : 20:00:00 )                    
     M    N    K   Vert. Eddy   Vert. Eddy   Richardson   at station                                                               
                    Viscosity  Diffusivity       Number                                                                            
                                                                                                                                   

     4   17    0  0.00000E+00  0.00000E+00  0.00000E+00   W1                  
     9   17    0  0.00000E+00  0.00000E+00  0.00000E+00   W2                  
    12   17    0  0.00000E+00  0.00000E+00  0.00000E+00   W3                  
     9   11    0  0.00000E+00  0.00000E+00  0.00000E+00   W4                  
     9    7    0  0.00000E+00  0.00000E+00  0.00000E+00   W5                  
     4   17    1  2.74141E-03  2.74141E-03  0.00000E+00   W1                  
     9   17    1  6.08504E-03  6.08504E-03  0.00000E+00   W2                  
    12   17    1  1.12996E-03  1.12996E-03  0.00000E+00   W3                  
     9   11    1  1.30112E-02  1.30112E-02  4.72028E-13   W4                  
     9    7    1  1.72648E-03  1.72648E-03  0.00000E+00   W5                  
     4   17    2  2.53295E-03  2.53295E-03  0.00000E+00   W1                  
     9   17    2  5.49889E-03  5.49889E-03  0.00000E+00   W2                  
    12   17    2  1.01734E-03  1.01734E-03  0.00000E+00   W3                  
     9   11    2  1.19866E-02  1.19866E-02 -2.08720E-13   W4                  
     9    7    2  1.58722E-03  1.58722E-03  0.00000E+00   W5                  
     4   17    3  1.45986E-03  1.45986E-03  0.00000E+00   W1                  
     9   17    3  3.11592E-03  3.11592E-03  0.00000E+00   W2                  
    12   17    3  5.80256E-04  5.80256E-04  0.00000E+00   W3                  
     9   11    3  6.91222E-03  6.91222E-03  0.00000E+00   W4                  
     9    7    3  9.13219E-04  9.13219E-04  0.00000E+00   W5                  
     4   17    4  5.38305E-04  5.38305E-04  0.00000E+00   W1                  
     9   17    4  1.14869E-03  1.14869E-03  0.00000E+00   W2                  
    12   17    4  2.16074E-04  2.16074E-04  0.00000E+00   W3                  
     9   11    4  2.57867E-03  2.57867E-03  0.00000E+00   W4                  
     9    7    4  3.39235E-04  3.39235E-04  0.00000E+00   W5                  
     4   17    5  1.26889E-05  1.26889E-05  0.00000E+00   W1                  
     9   17    5  1.33839E-05  1.33839E-05  0.00000E+00   W2                  
    12   17    5  2.84491E-06  2.84491E-06  0.00000E+00   W3                  
     9   11    5  2.59139E-05  2.59139E-05  0.00000E+00   W4                  
     9    7    5  3.25277E-06  3.25277E-06  0.00000E+00   W5                  
                                                                                                                                   
 Selected Density                   at NST=   240 ( = 1200.00 Elapsed min. ,Date : 1990-08-05 time : 20:00:00 )                    
     M    N    K  Density       at station                                                                                         
                                                                                                                                   
                                                                                                                                   
     4   17    1     1022.891   W1                  
     9   17    1     1022.891   W2                  
    12   17    1     1022.891   W3                  
     9   11    1     1022.891   W4                  
     9    7    1     1022.891   W5                  
     4   17    2     1022.891   W1                  
[...]
*** User: Unknown                                                                                                               ***
***********************************************************************************************************************************
                                                                                                                                   
 Computed Densities             (kg/m3), layer number   2                                                                          
                                     at NST=   300 ( = 1500.00 Elapsed min. ,Date : 1990-08-06 time : 01:00:00 )                   
   N=        1        2        3        4        5        6        7        8        9       10       11       12       13       14
                                                                                                                                   

   1      0.00     0.00     0.00     0.00     0.00     0.00     0.00     0.00     0.00     0.00     0.00     0.00     0.00     0.00
   2      0.00     0.00     0.00  1022.89  1022.89  1022.89  1022.89  1022.89  1022.89  1022.89  1022.89  1022.89  1022.89  1022.89
   3      0.00     0.00     0.00  1022.89  1022.89  1022.89  1022.89  1022.89  1022.89  1022.89  1022.89  1022.89  1022.89  1022.89
   4      0.00     0.00     0.00  1022.89  1022.89  1022.89  1022.89  1022.89  1022.89  1022.89  1022.89  1022.89  1022.89  1022.89
   5      0.00     0.00     0.00     0.00  1022.89  1022.89  1022.89  1022.89  1022.89  1022.89  1022.89  1022.89  1022.89  1022.89
   6      0.00     0.00     0.00     0.00     0.00  1022.89  1022.89  1022.89  1022.89  1022.89  1022.89  1022.89  1022.89  1022.89
   7      0.00     0.00     0.00     0.00     0.00     0.00  1022.89  1022.89  1022.89  1022.89  1022.89  1022.89  1022.89  1022.89
   8      0.00     0.00     0.00     0.00     0.00     0.00  1022.89  1022.89  1022.89  1022.89  1022.89  1022.89  1022.89  1022.89
   9      0.00     0.00     0.00     0.00     0.00     0.00  1022.89  1022.89  1022.89  1022.89  1022.89  1022.89  1022.89  1022.89
  10      0.00     0.00     0.00     0.00     0.00  1022.89  1022.89  1022.89  1022.89  1022.89  1022.89  1022.89  1022.89  1022.89
  11      0.00     0.00     0.00     0.00  1022.89  1022.89  1022.89  1022.89  1022.89  1022.89  1022.89  1022.89  1022.89  1022.89
  12      0.00     0.00  1022.89  1022.89  1022.89  1022.89  1022.89  1022.89  1022.89  1022.89  1022.89  1022.89  1022.89  1022.89
  13      0.00     0.00     0.00  1022.89  1022.89  1022.89  1022.89  1022.89  1022.89  1022.89  1022.89  1022.89  1022.89  1022.89
  14      0.00     0.00     0.00  1022.89  1022.89  1022.89  1022.89  1022.89  1022.89  1022.89  1022.89  1022.89  1022.89  1022.89
  15      0.00     0.00     0.00     0.00     0.00     0.00     0.00     0.00     0.00     0.00     0.00     0.00     0.00     0.00
                                                                                                                                   
 Computed Densities             (kg/m3), layer number   2                                                                          
                                     at NST=   300 ( = 1500.00 Elapsed min. ,Date : 1990-08-06 time : 01:00:00 )                   
   N=       15       16       17       18       19       20       21       22                                                      
                                                                                                                                   
   1      0.00     0.00     0.00     0.00     0.00     0.00     0.00     0.00
   2   1022.89  1022.89  1022.89  1022.89  1022.89  1022.89  1022.89  1022.89
   3   1022.89  1022.89  1022.89  1022.89  1022.89  1022.89  1022.89  1022.89
   4   1022.89  1022.89  1022.89  1022.89  1022.89  1022.89  1022.89  1022.89
   5   1022.89  1022.89  1022.89  1022.89  1022.89  1022.89  1022.89  1022.89
   6   1022.89  1022.89  1022.89  1022.89  1022.89  1022.89  1022.89  1022.89
   7   1022.89  1022.89  1022.89  1022.89  1022.89  1022.89  1022.89  1022.89
   8   1022.89  1022.89  1022.89  1022.89  1022.89  1022.89  1022.89  1022.89
   9   1022.89  1022.89  1022.89  1022.89  1022.89  1022.89  1022.89  1022.89
  10   1022.89  1022.89  1022.89  1022.89  1022.89  1022.89  1022.89  1022.89
  11   1022.89  1022.89  1022.89  1022.89  1022.89  1022.89  1022.89  1022.89
  12   1022.89  1022.89  1022.89  1022.89  1022.89  1022.89  1022.89  1022.89
  13   1022.89  1022.89  1022.89  1022.89  1022.89  1022.89  1022.89  1022.89
  14   1022.89  1022.89  1022.89  1022.89  1022.89  1022.89  1022.89  1022.89
  15      0.00     0.00     0.00     0.00     0.00     0.00     0.00     0.00
                                                                                                                                   
 Computed Densities             (kg/m3), layer number   3                                                                          
                                     at NST=   300 ( = 1500.00 Elapsed min. ,Date : 1990-08-06 time : 01:00:00 )                   
   N=        1        2        3        4        5        6        7        8        9       10       11       12       13       14
                                                                                                                                   
   1      0.00     0.00     0.00     0.00     0.00     0.00     0.00     0.00     0.00     0.00     0.00     0.00     0.00     0.00
   2      0.00     0.00     0.00  1022.89  1022.89  1022.89  1022.89  1022.89  1022.89  1022.89  1022.89  1022.89  1022.89  1022.89
   3      0.00     0.00     0.00  1022.89  1022.89  1022.89  1022.89  1022.89  1022.89  1022.89  1022.89  1022.89  1022.89  1022.89
   4      0.00     0.00     0.00  1022.89  1022.89  1022.89  1022.89  1022.89  1022.89  1022.89  1022.89  1022.89  1022.89  1022.89
   5      0.00     0.00     0.00     0.00  1022.89  1022.89  1022.89  1022.89  1022.89  1022.89  1022.89  1022.89  1022.89  1022.89
   6      0.00     0.00     0.00     0.00     0.00  1022.89  1022.89  1022.89  1022.89  1022.89  1022.89  1022.89  1022.89  1022.89
   7      0.00     0.00     0.00     0.00     0.00     0.00  1022.89  1022.89  1022.89  1022.89  1022.89  1022.89  1022.89  1022.89
   8      0.00     0.00     0.00     0.00     0.00     0.00  1022.89  1022.89  1022.89  1022.89  1022.89  1022.89  1022.89  1022.89
   9      0.00     0.00     0.00     0.00     0.00     0.00  1022.89  1022.89  1022.89  1022.89  1022.89  1022.89  1022.89  1022.89
  10      0.00     0.00     0.00     0.00     0.00  1022.89  1022.89  1022.89  1022.89  1022.89  1022.89  1022.89  1022.89  1022.89
  11      0.00     0.00     0.00     0.00  1022.89  1022.89  1022.89  1022.89  1022.89  1022.89  1022.89  1022.89  1022.89  1022.89
  12      0.00     0.00  1022.89  1022.89  1022.89  1022.89  1022.89  1022.89  1022.89  1022.89  1022.89  1022.89  1022.89  1022.89
  13      0.00     0.00     0.00  1022.89  1022.89  1022.89  1022.89  1022.89  1022.89  1022.89  1022.89  1022.89  1022.89  1022.89
  14      0.00     0.00     0.00  1022.89  1022.89  1022.89  1022.89  1022.89  1022.89  1022.89  1022.89  1022.89  1022.89  1022.89
  15      0.00     0.00     0.00     0.00     0.00     0.00     0.00     0.00     0.00     0.00     0.00     0.00     0.00     0.00

***********************************************************************************************************************************
*** Print of Delft3D-FLOW for Run f34 - Simulation date: 2015-05-19  10:08:40  pa   49  1                                       ***
*** Deltares, FLOW2D3D Version 6.01.15.5101, May 18 2015, 22:44:56                                                              ***
*** User: Unknown                                                                                                               ***
***********************************************************************************************************************************
                                                                                                                                   
 Computed Densities             (kg/m3), layer number   3                                                                          
                                     at NST=   300 ( = 1500.00 Elapsed min. ,Date : 1990-08-06 time : 01:00:00 )                   
   N=       15       16       17       18       19       20       21       22                                                      
                                                                                                                                   

   1      0.00     0.00     0.00     0.00     0.00     0.00     0.00     0.00
   2   1022.89  1022.89  1022.89  1022.89  1022.89  1022.89  1022.89  1022.89
   3   1022.89  1022.89  1022.89  1022.89  1022.89  1022.89  1022.89  1022.89
   4   1022.89  1022.89  1022.89  1022.89  1022.89  1022.89  1022.89  1022.89
   5   1022.89  1022.89  1022.89  1022.89  1022.89  1022.89  1022.89  1022.89
   6   1022.89  1022.89  1022.89  1022.89  1022.89  1022.89  1022.89  1022.89
   7   1022.89  1022.89  1022.89  1022.89  1022.89  1022.89  1022.89  1022.89
   8   1022.89  1022.89  1022.89  1022.89  1022.89  1022.89  1022.89  1022.89
   9   1022.89  1022.89  1022.89  1022.89  1022.89  1022.89  1022.89  1022.89
  10   1022.89  1022.89  1022.89  1022.89  1022.89  1022.89  1022.89  1022.89
  11   1022.89  1022.89  1022.89  1022.89  1022.89  1022.89  1022.89  1022.89
  12   1022.89  1022.89  1022.89  1022.89  1022.89  1022.89  1022.89  1022.89
  13   1022.89  1022.89  1022.89  1022.89  1022.89  1022.89  1022.89  1022.89
  14   1022.89  1022.89  1022.89  1022.89  1022.89  1022.89  1022.89  1022.89
  15      0.00     0.00     0.00     0.00     0.00     0.00     0.00     0.00
                                                                                                                                   
 Computed Densities             (kg/m3), layer number   4                                                                          
                                     at NST=   300 ( = 1500.00 Elapsed min. ,Date : 1990-08-06 time : 01:00:00 )                   
   N=        1        2        3        4        5        6        7        8        9       10       11       12       13       14
                                                                                                                                   
   1      0.00     0.00     0.00     0.00     0.00     0.00     0.00     0.00     0.00     0.00     0.00     0.00     0.00     0.00
   2      0.00     0.00     0.00  1022.89  1022.89  1022.89  1022.89  1022.89  1022.89  1022.89  1022.89  1022.89  1022.89  1022.89
   3      0.00     0.00     0.00  1022.89  1022.89  1022.89  1022.89  1022.89  1022.89  1022.89  1022.89  1022.89  1022.89  1022.89
   4      0.00     0.00     0.00  1022.89  1022.89  1022.89  1022.89  1022.89  1022.89  1022.89  1022.89  1022.89  1022.89  1022.89
   5      0.00     0.00     0.00     0.00  1022.89  1022.89  1022.89  1022.89  1022.89  1022.89  1022.89  1022.89  1022.89  1022.89
   6      0.00     0.00     0.00     0.00     0.00  1022.89  1022.89  1022.89  1022.89  1022.89  1022.89  1022.89  1022.89  1022.89
   7      0.00     0.00     0.00     0.00     0.00     0.00  1022.89  1022.89  1022.89  1022.89  1022.89  1022.89  1022.89  1022.89
   8      0.00     0.00     0.00     0.00     0.00     0.00  1022.89  1022.89  1022.89  1022.89  1022.89  1022.89  1022.89  1022.89
   9      0.00     0.00     0.00     0.00     0.00     0.00  1022.89  1022.89  1022.89  1022.89  1022.89  1022.89  1022.89  1022.89
  10      0.00     0.00     0.00     0.00     0.00  1022.89  1022.89  1022.89  1022.89  1022.89  1022.89  1022.89  1022.89  1022.89
  11      0.00     0.00     0.00     0.00  1022.89  1022.89  1022.89  1022.89  1022.89  1022.89  1022.89  1022.89  1022.89  1022.89
  12      0.00     0.00  1022.89  1022.89  1022.89  1022.89  1022.89  1022.89  1022.89  1022.89  1022.89  1022.89  1022.89  1022.89
  13      0.00     0.00     0.00  1022.89  1022.89  1022.89  1022.89  1022.89  1022.89  1022.89  1022.89  1022.89  1022.89  1022.89
  14      0.00     0.00     0.00  1022.89  1022.89  1022.89  1022.89  1022.89  1022.89  1022.89  1022.89  1022.89  1022.89  1022.89
  15      0.00     0.00     0.00     0.00     0.00     0.00     0.00     0.00     0.00     0.00     0.00     0.00     0.00     0.00
                                                                                                                                   
 Computed Densities             (kg/m3), layer number   4                                                                          
                                     at NST=   300 ( = 1500.00 Elapsed min. ,Date : 1990-08-06 time : 01:00:00 )                   
   N=       15       16       17       18       19       20       21       22                                                      
                                                                                                                                   
   1      0.00     0.00     0.00     0.00     0.00     0.00     0.00     0.00
   2   1022.89  1022.89  1022.89  1022.89  1022.89  1022.89  1022.89  1022.89
   3   1022.89  1022.89  1022.89  1022.89  1022.89  1022.89  1022.89  1022.89
   4   1022.89  1022.89  1022.89  1022.89  1022.89  1022.89  1022.89  1022.89
   5   1022.89  1022.89  1022.89  1022.89  1022.89  1022.89  1022.89  1022.89
   6   1022.89  1022.89  1022.89  1022.89  1022.89  1022.89  1022.89  1022.89
   7   1022.89  1022.89  1022.89  1022.89  1022.89  1022.89  1022.89  1022.89
   8   1022.89  1022.89  1022.89  1022.89  1022.89  1022.89  1022.89  1022.89
   9   1022.89  1022.89  1022.89  1022.89  1022.89  1022.89  1022.89  1022.89
  10   1022.89  1022.89  1022.89  1022.89  1022.89  1022.89  1022.89  1022.89
  11   1022.89  1022.89  1022.89  1022.89  1022.89  1022.89  1022.89  1022.89
  12   1022.89  1022.89  1022.89  1022.89  1022.89  1022.89  1022.89  1022.89
  13   1022.89  1022.89  1022.89  1022.89  1022.89  1022.89  1022.89  1022.89
  14   1022.89  1022.89  1022.89  1022.89  1022.89  1022.89  1022.89  1022.89
  15      0.00     0.00     0.00     0.00     0.00     0.00     0.00     0.00

***********************************************************************************************************************************
*** Print of Delft3D-FLOW for Run f34 - Simulation date: 2015-05-19  10:08:40  pa   50  1                                       ***
*** Deltares, FLOW2D3D Version 6.01.15.5101, May 18 2015, 22:44:56                                                              ***
*** User: Unknown                                                                                                               ***
***********************************************************************************************************************************
                                                                                                                                   
 Computed Densities             (kg/m3), layer number   5                                                                          
                                     at NST=   300 ( = 1500.00 Elapsed min. ,Date : 1990-08-06 time : 01:00:00 )                   
   N=        1        2        3        4        5        6        7        8        9       10       11       12       13       14
                                                                                                                                   

   1      0.00     0.00     0.00     0.00     0.00     0.00     0.00     0.00     0.00     0.00     0.00     0.00     0.00     0.00
   2      0.00     0.00     0.00  1022.89  1022.89  1022.89  1022.89  1022.89  1022.89  1022.89  1022.89  1022.89  1022.89  1022.89
   3      0.00     0.00     0.00  1022.89  1022.89  1022.89  1022.89  1022.89  1022.89  1022.89  1022.89  1022.89  1022.89  1022.89
   4      0.00     0.00     0.00  1022.89  1022.89  1022.89  1022.89  1022.89  1022.89  1022.89  1022.89  1022.89  1022.89  1022.89
   5      0.00     0.00     0.00     0.00  1022.89  1022.89  1022.89  1022.89  1022.89  1022.89  1022.89  1022.89  1022.89  1022.89
   6      0.00     0.00     0.00     0.00     0.00  1022.89  1022.89  1022.89  1022.89  1022.89  1022.89  1022.89  1022.89  1022.89
   7      0.00     0.00     0.00     0.00     0.00     0.00  1022.89  1022.89  1022.89  1022.89  1022.89  1022.89  1022.89  1022.89
   8      0.00     0.00     0.00     0.00     0.00     0.00  1022.89  1022.89  1022.89  1022.89  1022.89  1022.89  1022.89  1022.89
   9      0.00     0.00     0.00     0.00     0.00     0.00  1022.89  1022.89  1022.89  1022.89  1022.89  1022.89  1022.89  1022.89
  10      0.00     0.00     0.00     0.00     0.00  1022.89  1022.89  1022.89  1022.89  1022.89  1022.89  1022.89  1022.89  1022.89
  11      0.00     0.00     0.00     0.00  1022.89  1022.89  1022.89  1022.89  1022.89  1022.89  1022.89  1022.89  1022.89  1022.89
  12      0.00     0.00  1022.89  1022.89  1022.89  1022.89  1022.89  1022.89  1022.89  1022.89  1022.89  1022.89  1022.89  1022.89
  13      0.00     0.00     0.00  1022.89  1022.89  1022.89  1022.89  1022.89  1022.89  1022.89  1022.89  1022.89  1022.89  1022.89
  14      0.00     0.00     0.00  1022.89  1022.89  1022.89  1022.89  1022.89  1022.89  1022.89  1022.89  1022.89  1022.89  1022.89
  15      0.00     0.00     0.00     0.00     0.00     0.00     0.00     0.00     0.00     0.00     0.00     0.00     0.00     0.00
                                                                                                                                   
 Computed Densities             (kg/m3), layer number   5                                                                          
                                     at NST=   300 ( = 1500.00 Elapsed min. ,Date : 1990-08-06 time : 01:00:00 )                   
   N=       15       16       17       18       19       20       21       22                                                      
                                                                                                                                   
   1      0.00     0.00     0.00     0.00     0.00     0.00     0.00     0.00
   2   1022.89  1022.89  1022.89  1022.89  1022.89  1022.89  1022.89  1022.89
   3   1022.89  1022.89  1022.89  1022.89  1022.89  1022.89  1022.89  1022.89
   4   1022.89  1022.89  1022.89  1022.89  1022.89  1022.89  1022.89  1022.89
   5   1022.89  1022.89  1022.89  1022.89  1022.89  1022.89  1022.89  1022.89
   6   1022.89  1022.89  1022.89  1022.89  1022.89  1022.89  1022.89  1022.89
   7   1022.89  1022.89  1022.89  1022.89  1022.89  1022.89  1022.89  1022.89
   8   1022.89  1022.89  1022.89  1022.89  1022.89  1022.89  1022.89  1022.89
   9   1022.89  1022.89  1022.89  1022.89  1022.89  1022.89  1022.89  1022.89
  10   1022.89  1022.89  1022.89  1022.89  1022.89  1022.89  1022.89  1022.89
  11   1022.89  1022.89  1022.89  1022.89  1022.89  1022.89  1022.89  1022.89
  12   1022.89  1022.89  1022.89  1022.89  1022.89  1022.89  1022.89  1022.89
  13   1022.89  1022.89  1022.89  1022.89  1022.89  1022.89  1022.89  1022.89
  14   1022.89  1022.89  1022.89  1022.89  1022.89  1022.89  1022.89  1022.89
  15      0.00     0.00     0.00     0.00     0.00     0.00     0.00     0.00

*** End   of flow for model:   f34                                                                                              ***
***       2015-05-19  10:09:03                                                                                                  ***
