file-created-by  Deltares, D-Flow FM Version 1.1.124.38411, Feb 05 2015, 11:29:41
file-creation-date  12:03:45, 05-02-2015                                        
task      full-coupling
geometry  unstructured
horizontal-aggregation no
reference-time           '19920831000000'
hydrodynamic-start-time  '19920831000000'
hydrodynamic-stop-time   '19920831002000'
hydrodynamic-timestep    '00000000000100'
conversion-ref-time      '19920831000000'
conversion-start-time    '19920831000000'
conversion-stop-time     '19920831002000'
conversion-timestep      '00000000000100'
grid-cells-first-direction          12
grid-cells-second-direction          1
number-hydrodynamic-layers           1
number-horizontal-exchanges         20
number-water-quality-segments-per-layer         12
number-water-quality-layers          1
hydrodynamic-file        'waqtest'
aggregation-file         none
boundaries-file        'waqtest.bnd'
waqgeom-file    'waqtest_flowgeom.nc'
volumes-file             'waqtest.vol'
areas-file               'waqtest.are'
flows-file               'waqtest.flo'
pointers-file            'waqtest.poi'
lengths-file             'waqtest.len'
salinity-file            'waqtest.sal'
temperature-file         none
vert-diffusion-file      none
horizontal-surfaces-file 'waqtest.srf'
surfaces-file            'waqtest.srfold'
shear-stresses-file      'waqtest.tau'
attributes-file        'waqtest.atr'
hydrodynamic-layers
          1.000
end-hydrodynamic-layers
water-quality-layers   
        1.000
end-water-quality-layers
