10-04 17:35 root         INFO     Converting from Sobek3 to D-Flow FM: model1.md1d
10-04 17:35 sobek3Reader INFO     Reading Sobek files
