** INFO   : Opened file : unstruc.hlp
** INFO   : Closed file : unstruc.hlp
** INFO   : Opened file : ISOCOLOUR.hls
** INFO   : Using Local FileISOCOLOUR.hls
** INFO   : Closed file : ISOCOLOUR.hls
** INFO   : Opened file : ISOCOLOUR.hls
** INFO   : Using Local FileISOCOLOUR.hls
** INFO   : Closed file : ISOCOLOUR.hls
* Deltares, D-Flow FM Version 1.1.113.35125M, Jul 30 2014, 10:19:08
* File creation date: 14:12:29, 04-08-2014
** INFO   :  MAXIMUM NUMBER OF LINKS         :            2
** INFO   :  MAXIMUM NUMBER OF NODES         :            0
** INFO   :  RESOLUTION GRAPHICS SCREEN      :         1696         945
** INFO   :  RESOLUTION TEXT     SCREEN      :          212          63
** INFO   :  NUMBER OF COLOURS AVAILABLE     :          256
** DEBUG  :            0  0.1000020     NOD(KMAX)
** DEBUG  :            6  0.7000140     XK (KMAX), YK (KMAX), ZK (KMAX), KC (KMAX), NMK (KMAX), RNOD(KMAX)
** DEBUG  :            6  9.9999998E-03 XS(NSMAX),YS(NSMAX),ZS(NSMAX),IPSAM(NSMAX)
** DEBUG  :            6  5.0000001E-02 xlan(maxlan)
** DEBUG  :            7  5.0000001E-02 ylan(maxlan)
** DEBUG  :            7  5.0000001E-02 zlan(maxlan)
** DEBUG  :            7  2.5000000E-02 nclan(maxlan)
** INFO   : Load MDU-file                    (*.mdu)
** INFO   : Opened file : sourcesink_2d.mdu
** INFO   : Closed file : sourcesink_2d.mdu
** DEBUG  :            8  0.1000020     NOD(KMAX)
** DEBUG  :           14  0.7000140     XK (KMAX), YK (KMAX), ZK (KMAX), KC (KMAX), NMK (KMAX), RNOD(KMAX)
** DEBUG  :           14  1.4400000E-03 xsp(maxspl, maxsplen)
** DEBUG  :           14  1.4400000E-03 ysp(maxspl, maxsplen)
** DEBUG  :           14  1.4400000E-03 xsp2(maxspl, maxsplen)
** DEBUG  :           14  1.4400000E-03 ysp2(maxspl, maxsplen)
** DEBUG  :           14  9.9999998E-03 XS(NSMAX),YS(NSMAX),ZS(NSMAX),IPSAM(NSMAX)
** DEBUG  :           14  5.9999999E-02 xlan(maxlan)
** DEBUG  :           15  5.9999999E-02 ylan(maxlan)
** DEBUG  :           15  5.9999999E-02 zlan(maxlan)
** DEBUG  :           16  2.9999999E-02 nclan(maxlan)
 Until here copy of previous diagnostic file
** INFO   : Opened file : sourcesink_2d_prep.mdu
** INFO   : Process sourcesink_2d.mdu ...
** INFO   : Opened file : sourcesink_2d.mdu
** INFO   : Opened Model definition file : sourcesink_2d.mdu
** WARNING: TimeSplitInterval invalid, disabling time partitioning of output. Got: 0X
** DEBUG  : Opened 'kanaal2dfine_net.nc' as #         3.
** DEBUG  : Closed NetCDF file 'kanaal2dfine_net.nc.
** INFO   : Opened file : sourcesink_2D.ldb
** INFO   : Closed file : sourcesink_2D.ldb
** INFO   : Opened display settings file : sourcesink_2d.cfg
** INFO   : Opened file : ISOCOLOUR.hls
** INFO   : Using Local FileISOCOLOUR.hls
** INFO   : Closed file : ISOCOLOUR.hls
** INFO   : Opened file : ISOCOLOUR.hls
** INFO   : Using Local FileISOCOLOUR.hls
** INFO   : Closed file : ISOCOLOUR.hls
** DEBUG  :           16  4.8149999E-02 netcell(numpx1)
** DEBUG  :           17  6.2816001E-02 lnn(numl)
** DEBUG  :           18  0.1256320     lne(2,numl)
** DEBUG  :           18  3.0719999E-02 xz(numc)
** DEBUG  :           18  3.0719999E-02 yz(numc)
** DEBUG  :           18  3.0719999E-02 xzw(numc)
** DEBUG  :           18  3.0719999E-02 yzw(numc)
** DEBUG  :           19  3.0719999E-02 ba(numc)
** INFO   : Opened file : sourcesink_2D.ext
** DEBUG  :           19  6.2816001E-02 xe (nx)
** DEBUG  :           20  6.2816001E-02 ye (nx)
** DEBUG  :           20  6.2816001E-02 xyen(2, nx)
** DEBUG  :           28   1.005056     kce(nx), kez(nx), keu(nx), kes(nx), ketm(nx), kesd(nx), ket(nx), ken(nx), keg(nx), ked(nx), kep(nx), itpez(nx), itpenz(nx), itpeu(nx) , itpenu(nx) , kew(nx)
** DEBUG  :           29  6.2816001E-02 ketr(1,nx)
** INFO   : looking for keyword: QUANTITY
** INFO   : looking for keyword: FILENAME
** INFO   : looking for keyword: FILETYPE
** INFO   : looking for keyword: METHOD
** INFO   : looking for keyword: OPERAND
** INFO   : Looking for optional VALUE in: AREA=1.5
** INFO   : Looking for optional FACTOR in: AREA=1.5
** INFO   : Looking for optional IFRCTYP in: AREA=1.5
** INFO   : Looking for optional AVERAGINGTYPE in: AREA=1.5
** INFO   : Looking for optional RELATIVESEARCHCELLSIZE in: AREA=1.5
** INFO   : Looking for optional DISCHARGE in: AREA=1.5
** INFO   : Looking for optional SALINITY in: AREA=1.5
** INFO   : Looking for optional TEMPERATURE in: AREA=1.5
** INFO   : Looking for optional AREA in: AREA=1.5
** INFO   : Found optional keyword AREA
** INFO   : looking for keyword: QUANTITY
** INFO   : looking for keyword: FILENAME
** INFO   : looking for keyword: FILETYPE
** INFO   : looking for keyword: METHOD
** INFO   : looking for keyword: OPERAND
** INFO   : Looking for optional VALUE in: AREA=1.0
** INFO   : Looking for optional FACTOR in: AREA=1.0
** INFO   : Looking for optional IFRCTYP in: AREA=1.0
** INFO   : Looking for optional AVERAGINGTYPE in: AREA=1.0
** INFO   : Looking for optional RELATIVESEARCHCELLSIZE in: AREA=1.0
** INFO   : Looking for optional DISCHARGE in: AREA=1.0
** INFO   : Looking for optional SALINITY in: AREA=1.0
** INFO   : Looking for optional TEMPERATURE in: AREA=1.0
** INFO   : Looking for optional AREA in: AREA=1.0
** INFO   : Found optional keyword AREA
** INFO   : looking for keyword: QUANTITY
** INFO   : looking for keyword: FILENAME
** INFO   : looking for keyword: FILETYPE
** INFO   : looking for keyword: METHOD
** INFO   : looking for keyword: OPERAND
** INFO   : Looking for optional VALUE in: AREA=1.0
** INFO   : Looking for optional FACTOR in: AREA=1.0
** INFO   : Looking for optional IFRCTYP in: AREA=1.0
** INFO   : Looking for optional AVERAGINGTYPE in: AREA=1.0
** INFO   : Looking for optional RELATIVESEARCHCELLSIZE in: AREA=1.0
** INFO   : Looking for optional DISCHARGE in: AREA=1.0
** INFO   : Looking for optional SALINITY in: AREA=1.0
** INFO   : Looking for optional TEMPERATURE in: AREA=1.0
** INFO   : Looking for optional AREA in: AREA=1.0
** INFO   : Found optional keyword AREA
** INFO   : looking for keyword: QUANTITY
** INFO   : looking for keyword: FILENAME
** INFO   : looking for keyword: FILETYPE
** INFO   : looking for keyword: METHOD
** INFO   : looking for keyword: OPERAND
** INFO   : Looking for optional VALUE in: AREA=0.0
** INFO   : Looking for optional FACTOR in: AREA=0.0
** INFO   : Looking for optional IFRCTYP in: AREA=0.0
** INFO   : Looking for optional AVERAGINGTYPE in: AREA=0.0
** INFO   : Looking for optional RELATIVESEARCHCELLSIZE in: AREA=0.0
** INFO   : Looking for optional DISCHARGE in: AREA=0.0
** INFO   : Looking for optional SALINITY in: AREA=0.0
** INFO   : Looking for optional TEMPERATURE in: AREA=0.0
** INFO   : Looking for optional AREA in: AREA=0.0
** INFO   : Found optional keyword AREA
** INFO   : looking for keyword: QUANTITY
** INFO   : looking for keyword: FILENAME
** INFO   : looking for keyword: FILETYPE
** INFO   : looking for keyword: METHOD
** INFO   : looking for keyword: OPERAND
** INFO   : Looking for optional VALUE in: AREA=1.0
** INFO   : Looking for optional FACTOR in: AREA=1.0
** INFO   : Looking for optional IFRCTYP in: AREA=1.0
** INFO   : Looking for optional AVERAGINGTYPE in: AREA=1.0
** INFO   : Looking for optional RELATIVESEARCHCELLSIZE in: AREA=1.0
** INFO   : Looking for optional DISCHARGE in: AREA=1.0
** INFO   : Looking for optional SALINITY in: AREA=1.0
** INFO   : Looking for optional TEMPERATURE in: AREA=1.0
** INFO   : Looking for optional AREA in: AREA=1.0
** INFO   : Found optional keyword AREA
** INFO   : looking for keyword: QUANTITY
** INFO   : looking for keyword: FILENAME
** INFO   : looking for keyword: FILETYPE
** INFO   : looking for keyword: METHOD
** INFO   : looking for keyword: OPERAND
** INFO   : Looking for optional VALUE in: AREA=1.0
** INFO   : Looking for optional FACTOR in: AREA=1.0
** INFO   : Looking for optional IFRCTYP in: AREA=1.0
** INFO   : Looking for optional AVERAGINGTYPE in: AREA=1.0
** INFO   : Looking for optional RELATIVESEARCHCELLSIZE in: AREA=1.0
** INFO   : Looking for optional DISCHARGE in: AREA=1.0
** INFO   : Looking for optional SALINITY in: AREA=1.0
** INFO   : Looking for optional TEMPERATURE in: AREA=1.0
** INFO   : Looking for optional AREA in: AREA=1.0
** INFO   : Found optional keyword AREA
** INFO   : looking for keyword: QUANTITY
** INFO   : keyword QUANTITY NOT found!
** DEBUG  :           31  0.2457600     nd(ndx), bl(ndx), bai(ndx), kcs(ndx), aif(ndx)
** DEBUG  :           35  0.1201280     ln   (2,lnx)
** DEBUG  :           36  0.1201280     lncn (2,lnx)
** DEBUG  :           37  0.1201280     bob  (2,lnx)
** DEBUG  :           37  6.0063999E-02 dx   (  lnx)
** DEBUG  :           38  6.0063999E-02 dxi  (  lnx)
** DEBUG  :           38  6.0063999E-02 wu   (  lnx)
** DEBUG  :           39  6.0063999E-02 wui  (  lnx)
** DEBUG  :           39  6.0063999E-02 kcu  (  lnx)
** DEBUG  :           39  6.0063999E-02 csu  (  lnx)
** DEBUG  :           40  6.0063999E-02 snu  (  lnx)
** DEBUG  :           40  6.0063999E-02 acl  (  lnx)
** DEBUG  :           41  6.0063999E-02 acn  (2,lnx)
** DEBUG  :           41  6.0063999E-02 iadv   (lnx)
** DEBUG  :           42  6.0063999E-02 teta   (lnx)
** DEBUG  :           42  6.0063999E-02 ibot   (lnx)
** DEBUG  :           44  0.1801920     xu(lnx), yu(lnx) , blu(lnx)
** DEBUG  :           44  6.2816001E-02 ln2lne (nex)
** DEBUG  :           45  6.2816001E-02 lne2ln (nex)
** DEBUG  :           46  3.2099999E-02  cn (numk)
** DEBUG  :           46  3.2099999E-02 ucnx(numk)
** DEBUG  :           47  3.2099999E-02 ucny(numk)
** DEBUG  :           47  3.2099999E-02 ban (numk)
** DEBUG  :           47  6.0063999E-02 wcx1(lnx)
** DEBUG  :           48  6.0063999E-02 wcy1(lnx)
** DEBUG  :           48  6.0063999E-02 wcx2(lnx)
** DEBUG  :           49  6.0063999E-02 wcy2(lnx)
** DEBUG  :           49  6.1439998E-02 wcxy (2,ndx)
** DEBUG  :           50  0.1201280     wcL  (2,Lnx)
** DEBUG  :           50  3.0719999E-02 wc     (ndx)
** DEBUG  :           51  6.0063999E-02 wcnx3(lnx)
** DEBUG  :           51  6.0063999E-02 wcny3(lnx)
** DEBUG  :           52  6.0063999E-02 wcnx4(lnx)
** DEBUG  :           52  6.0063999E-02 wcny4(lnx)
** DEBUG  :           53  9.6299998E-02 wcnxy (3,numk)
** DEBUG  :           53  2.7520000E-03 cscnw(nrcnw)
** DEBUG  :           53  2.7520000E-03 sncnw(nrcnw)
** DEBUG  :           53  2.7520000E-03  kcnw(nrcnw)
** DEBUG  :           54  4.4032000E-02 walls(17,nw)
** DEBUG  :           55  0.1228800     banf(mxban)
** DEBUG  :           56  0.1228800     nban(4,mxban)
** DEBUG  :           57  0.1228800     rr(mxban), nr(mxban)
** DEBUG  :           58  0.1228800     banh (mxban)
** DEBUG  :           59  0.1228800     nbanh(4,mxban)
** DEBUG  :           60  6.1439998E-02 s0  (ndx) , s1  (ndx)
** DEBUG  :           60  6.1439998E-02 a0  (ndx) , a1  (ndx)
** DEBUG  :           61  6.1439998E-02 hs  (ndx) , s00 (ndx)
** DEBUG  :           61  3.0719999E-02 cfs (ndx)
** DEBUG  :           61  3.0719999E-02 kbot (ndx)
** DEBUG  :           62  3.0719999E-02 ktop (ndx)
** DEBUG  :           62  3.0719999E-02 ktop0(ndx)
** DEBUG  :           62  3.0719999E-02 ktop1(ndx)
** DEBUG  :           62  3.0719999E-02 kmxn (ndx)
** DEBUG  :           63  6.0063999E-02 Lbot (Lnx)
** DEBUG  :           63  6.0063999E-02 Ltop (Lnx)
** DEBUG  :           64  6.0063999E-02 kmxL (Lnx)
** DEBUG  :           64  6.0063999E-02 ustb  (lnx)
** DEBUG  :           65  6.0063999E-02 ustw  (lnx)
** DEBUG  :           65  3.0719999E-02 laydefnr(ndx)
** DEBUG  :           65  6.1439998E-02 ucx (ndkx) , ucy (ndkx)
** DEBUG  :           66  6.1439998E-02 uqcx(ndkx) , uqcy(ndkx)
** DEBUG  :           66  6.1439998E-02 ucxq(ndkx) , ucyq(ndkx)
** DEBUG  :           67  6.1439998E-02 qin (ndkx) , vih (ndkx)
** DEBUG  :           67  6.1439998E-02 dvxc(ndkx) , dvyc(ndkx)
** DEBUG  :           68  3.0719999E-02 cfli(ndkx)
** DEBUG  :           68  3.0719999E-02 squ (ndkx)
** DEBUG  :           68  3.0719999E-02 sqi (ndkx)
** DEBUG  :           68  3.0719999E-02 sq  (ndkx)
** DEBUG  :           69  3.0719999E-02 vol0(ndkx)
** DEBUG  :           69  3.0719999E-02 vol1(ndkx)
** DEBUG  :           69  3.0719999E-02 volerror(ndkx)
** DEBUG  :           69  3.0719999E-02 sqa(ndkx)
** DEBUG  :           70  6.0063999E-02 cfuhi(lnx)
** DEBUG  :           70  3.0719999E-02 frcu (lnx)
** DEBUG  :           70  3.0719999E-02 ifrcutp(lnx)
** DEBUG  :           71  6.0063999E-02 wdsu  (lnx)
** DEBUG  :           71  3.0719999E-02 frculin (lnx)
** DEBUG  :           72  6.0063999E-02 u0   (lnkx)
** DEBUG  :           72  6.0063999E-02 u1   (lnkx)
** DEBUG  :           73  6.0063999E-02 q1   (lnkx)
** DEBUG  :           73  6.0063999E-02 qa   (lnkx)
** DEBUG  :           74  6.0063999E-02 v    (lnkx)
** DEBUG  :           74  6.0063999E-02 ucxu (lnkx)
** DEBUG  :           74  6.0063999E-02 ucyu (lnkx)
** DEBUG  :           75  6.0063999E-02 hu   (lnkx)
** DEBUG  :           75  6.0063999E-02 huvli(lnkx)
** DEBUG  :           76  6.0063999E-02 au   (lnkx)
** DEBUG  :           76  6.0063999E-02 viu  (lnkx)
** DEBUG  :           77  6.0063999E-02 cflj (lnkx)
** DEBUG  :           77  6.0063999E-02 tetaj(lnkx)
** DEBUG  :           78  6.0063999E-02 suu  (lnkx)
** DEBUG  :           78  6.0063999E-02 advi (lnkx)
** DEBUG  :           79  6.0063999E-02 adve (lnkx)
** DEBUG  :           79  6.0063999E-02 rhou (lnkx)
** DEBUG  :           80  6.0063999E-02 plotlin(max(lnkx,ndkx))
** DEBUG  :           80  3.0719999E-02 numlimdt(ndx)
** DEBUG  :           80  3.0719999E-02 bb   (ndx )
** DEBUG  :           81  3.0719999E-02 dd   (ndx )
** DEBUG  :           81  3.0719999E-02 fu   (lnkx)
** DEBUG  :           81  3.0719999E-02 ru   (lnkx)
** INFO   : looking for keyword: QUANTITY
** INFO   : looking for keyword: FILENAME
** INFO   : looking for keyword: FILETYPE
** INFO   : looking for keyword: METHOD
** INFO   : looking for keyword: OPERAND
** INFO   : Looking for optional VALUE in: AREA=1.5
** INFO   : Looking for optional FACTOR in: AREA=1.5
** INFO   : Looking for optional IFRCTYP in: AREA=1.5
** INFO   : Looking for optional AVERAGINGTYPE in: AREA=1.5
** INFO   : Looking for optional RELATIVESEARCHCELLSIZE in: AREA=1.5
** INFO   : Looking for optional DISCHARGE in: AREA=1.5
** INFO   : Looking for optional SALINITY in: AREA=1.5
** INFO   : Looking for optional TEMPERATURE in: AREA=1.5
** INFO   : Looking for optional AREA in: AREA=1.5
** INFO   : Found optional keyword AREA
** INFO   : External Forcing or Initialising 'discharge_salinity_temperature_sorsin' from file 'chan1_westeast.pli'.
** INFO   : Opened file : chan1_westeast.pli
** INFO   : Closed file : chan1_westeast.pli
** INFO   : looking for keyword: QUANTITY
** INFO   : looking for keyword: FILENAME
** INFO   : looking for keyword: FILETYPE
** INFO   : looking for keyword: METHOD
** INFO   : looking for keyword: OPERAND
** INFO   : Looking for optional VALUE in: AREA=1.0
** INFO   : Looking for optional FACTOR in: AREA=1.0
** INFO   : Looking for optional IFRCTYP in: AREA=1.0
** INFO   : Looking for optional AVERAGINGTYPE in: AREA=1.0
** INFO   : Looking for optional RELATIVESEARCHCELLSIZE in: AREA=1.0
** INFO   : Looking for optional DISCHARGE in: AREA=1.0
** INFO   : Looking for optional SALINITY in: AREA=1.0
** INFO   : Looking for optional TEMPERATURE in: AREA=1.0
** INFO   : Looking for optional AREA in: AREA=1.0
** INFO   : Found optional keyword AREA
** INFO   : External Forcing or Initialising 'discharge_salinity_temperature_sorsin' from file 'chan2_east_outflow.pli'.
** INFO   : Opened file : chan2_east_outflow.pli
** INFO   : Closed file : chan2_east_outflow.pli
** INFO   : looking for keyword: QUANTITY
** INFO   : looking for keyword: FILENAME
** INFO   : looking for keyword: FILETYPE
** INFO   : looking for keyword: METHOD
** INFO   : looking for keyword: OPERAND
** INFO   : Looking for optional VALUE in: AREA=1.0
** INFO   : Looking for optional FACTOR in: AREA=1.0
** INFO   : Looking for optional IFRCTYP in: AREA=1.0
** INFO   : Looking for optional AVERAGINGTYPE in: AREA=1.0
** INFO   : Looking for optional RELATIVESEARCHCELLSIZE in: AREA=1.0
** INFO   : Looking for optional DISCHARGE in: AREA=1.0
** INFO   : Looking for optional SALINITY in: AREA=1.0
** INFO   : Looking for optional TEMPERATURE in: AREA=1.0
** INFO   : Looking for optional AREA in: AREA=1.0
** INFO   : Found optional keyword AREA
** INFO   : External Forcing or Initialising 'discharge_salinity_temperature_sorsin' from file 'chan2_westeast_fromsouth.pli'.
** INFO   : Opened file : chan2_westeast_fromsouth.pli
** INFO   : Closed file : chan2_westeast_fromsouth.pli
** INFO   : looking for keyword: QUANTITY
** INFO   : looking for keyword: FILENAME
** INFO   : looking for keyword: FILETYPE
** INFO   : looking for keyword: METHOD
** INFO   : looking for keyword: OPERAND
** INFO   : Looking for optional VALUE in: AREA=0.0
** INFO   : Looking for optional FACTOR in: AREA=0.0
** INFO   : Looking for optional IFRCTYP in: AREA=0.0
** INFO   : Looking for optional AVERAGINGTYPE in: AREA=0.0
** INFO   : Looking for optional RELATIVESEARCHCELLSIZE in: AREA=0.0
** INFO   : Looking for optional DISCHARGE in: AREA=0.0
** INFO   : Looking for optional SALINITY in: AREA=0.0
** INFO   : Looking for optional TEMPERATURE in: AREA=0.0
** INFO   : Looking for optional AREA in: AREA=0.0
** INFO   : Found optional keyword AREA
** INFO   : External Forcing or Initialising 'discharge_salinity_temperature_sorsin' from file 'chan2_west_inflow.pli'.
** INFO   : Opened file : chan2_west_inflow.pli
** INFO   : Closed file : chan2_west_inflow.pli
** INFO   : looking for keyword: QUANTITY
** INFO   : looking for keyword: FILENAME
** INFO   : looking for keyword: FILETYPE
** INFO   : looking for keyword: METHOD
** INFO   : looking for keyword: OPERAND
** INFO   : Looking for optional VALUE in: AREA=1.0
** INFO   : Looking for optional FACTOR in: AREA=1.0
** INFO   : Looking for optional IFRCTYP in: AREA=1.0
** INFO   : Looking for optional AVERAGINGTYPE in: AREA=1.0
** INFO   : Looking for optional RELATIVESEARCHCELLSIZE in: AREA=1.0
** INFO   : Looking for optional DISCHARGE in: AREA=1.0
** INFO   : Looking for optional SALINITY in: AREA=1.0
** INFO   : Looking for optional TEMPERATURE in: AREA=1.0
** INFO   : Looking for optional AREA in: AREA=1.0
** INFO   : Found optional keyword AREA
** INFO   : External Forcing or Initialising 'discharge_salinity_temperature_sorsin' from file 'chan3to4_eastwest.pli'.
** INFO   : Opened file : chan3to4_eastwest.pli
** INFO   : Closed file : chan3to4_eastwest.pli
** INFO   : looking for keyword: QUANTITY
** INFO   : looking for keyword: FILENAME
** INFO   : looking for keyword: FILETYPE
** INFO   : looking for keyword: METHOD
** INFO   : looking for keyword: OPERAND
** INFO   : Looking for optional VALUE in: AREA=1.0
** INFO   : Looking for optional FACTOR in: AREA=1.0
** INFO   : Looking for optional IFRCTYP in: AREA=1.0
** INFO   : Looking for optional AVERAGINGTYPE in: AREA=1.0
** INFO   : Looking for optional RELATIVESEARCHCELLSIZE in: AREA=1.0
** INFO   : Looking for optional DISCHARGE in: AREA=1.0
** INFO   : Looking for optional SALINITY in: AREA=1.0
** INFO   : Looking for optional TEMPERATURE in: AREA=1.0
** INFO   : Looking for optional AREA in: AREA=1.0
** INFO   : Found optional keyword AREA
** INFO   : External Forcing or Initialising 'discharge_salinity_temperature_sorsin' from file 'chan3to4_westeast.pli'.
** INFO   : Opened file : chan3to4_westeast.pli
** INFO   : Closed file : chan3to4_westeast.pli
** INFO   : looking for keyword: QUANTITY
** INFO   : keyword QUANTITY NOT found!
** INFO   : External Forcing or Initialising 'discharge_salinity_temperature_sorsin' from file 'chan3to4_westeast.pli'.
** INFO   : looking for keyword: QUANTITY
** INFO   : looking for keyword: FILENAME
** INFO   : looking for keyword: FILETYPE
** INFO   : looking for keyword: METHOD
** INFO   : looking for keyword: OPERAND
** INFO   : Looking for optional VALUE in: AREA=1.5
** INFO   : Looking for optional FACTOR in: AREA=1.5
** INFO   : Looking for optional IFRCTYP in: AREA=1.5
** INFO   : Looking for optional AVERAGINGTYPE in: AREA=1.5
** INFO   : Looking for optional RELATIVESEARCHCELLSIZE in: AREA=1.5
** INFO   : Looking for optional DISCHARGE in: AREA=1.5
** INFO   : Looking for optional SALINITY in: AREA=1.5
** INFO   : Looking for optional TEMPERATURE in: AREA=1.5
** INFO   : Looking for optional AREA in: AREA=1.5
** INFO   : Found optional keyword AREA
** INFO   : looking for keyword: QUANTITY
** INFO   : looking for keyword: FILENAME
** INFO   : looking for keyword: FILETYPE
** INFO   : looking for keyword: METHOD
** INFO   : looking for keyword: OPERAND
** INFO   : Looking for optional VALUE in: AREA=1.0
** INFO   : Looking for optional FACTOR in: AREA=1.0
** INFO   : Looking for optional IFRCTYP in: AREA=1.0
** INFO   : Looking for optional AVERAGINGTYPE in: AREA=1.0
** INFO   : Looking for optional RELATIVESEARCHCELLSIZE in: AREA=1.0
** INFO   : Looking for optional DISCHARGE in: AREA=1.0
** INFO   : Looking for optional SALINITY in: AREA=1.0
** INFO   : Looking for optional TEMPERATURE in: AREA=1.0
** INFO   : Looking for optional AREA in: AREA=1.0
** INFO   : Found optional keyword AREA
** INFO   : looking for keyword: QUANTITY
** INFO   : looking for keyword: FILENAME
** INFO   : looking for keyword: FILETYPE
** INFO   : looking for keyword: METHOD
** INFO   : looking for keyword: OPERAND
** INFO   : Looking for optional VALUE in: AREA=1.0
** INFO   : Looking for optional FACTOR in: AREA=1.0
** INFO   : Looking for optional IFRCTYP in: AREA=1.0
** INFO   : Looking for optional AVERAGINGTYPE in: AREA=1.0
** INFO   : Looking for optional RELATIVESEARCHCELLSIZE in: AREA=1.0
** INFO   : Looking for optional DISCHARGE in: AREA=1.0
** INFO   : Looking for optional SALINITY in: AREA=1.0
** INFO   : Looking for optional TEMPERATURE in: AREA=1.0
** INFO   : Looking for optional AREA in: AREA=1.0
** INFO   : Found optional keyword AREA
** INFO   : looking for keyword: QUANTITY
** INFO   : looking for keyword: FILENAME
** INFO   : looking for keyword: FILETYPE
** INFO   : looking for keyword: METHOD
** INFO   : looking for keyword: OPERAND
** INFO   : Looking for optional VALUE in: AREA=0.0
** INFO   : Looking for optional FACTOR in: AREA=0.0
** INFO   : Looking for optional IFRCTYP in: AREA=0.0
** INFO   : Looking for optional AVERAGINGTYPE in: AREA=0.0
** INFO   : Looking for optional RELATIVESEARCHCELLSIZE in: AREA=0.0
** INFO   : Looking for optional DISCHARGE in: AREA=0.0
** INFO   : Looking for optional SALINITY in: AREA=0.0
** INFO   : Looking for optional TEMPERATURE in: AREA=0.0
** INFO   : Looking for optional AREA in: AREA=0.0
** INFO   : Found optional keyword AREA
** INFO   : looking for keyword: QUANTITY
** INFO   : looking for keyword: FILENAME
** INFO   : looking for keyword: FILETYPE
** INFO   : looking for keyword: METHOD
** INFO   : looking for keyword: OPERAND
** INFO   : Looking for optional VALUE in: AREA=1.0
** INFO   : Looking for optional FACTOR in: AREA=1.0
** INFO   : Looking for optional IFRCTYP in: AREA=1.0
** INFO   : Looking for optional AVERAGINGTYPE in: AREA=1.0
** INFO   : Looking for optional RELATIVESEARCHCELLSIZE in: AREA=1.0
** INFO   : Looking for optional DISCHARGE in: AREA=1.0
** INFO   : Looking for optional SALINITY in: AREA=1.0
** INFO   : Looking for optional TEMPERATURE in: AREA=1.0
** INFO   : Looking for optional AREA in: AREA=1.0
** INFO   : Found optional keyword AREA
** INFO   : looking for keyword: QUANTITY
** INFO   : looking for keyword: FILENAME
** INFO   : looking for keyword: FILETYPE
** INFO   : looking for keyword: METHOD
** INFO   : looking for keyword: OPERAND
** INFO   : Looking for optional VALUE in: AREA=1.0
** INFO   : Looking for optional FACTOR in: AREA=1.0
** INFO   : Looking for optional IFRCTYP in: AREA=1.0
** INFO   : Looking for optional AVERAGINGTYPE in: AREA=1.0
** INFO   : Looking for optional RELATIVESEARCHCELLSIZE in: AREA=1.0
** INFO   : Looking for optional DISCHARGE in: AREA=1.0
** INFO   : Looking for optional SALINITY in: AREA=1.0
** INFO   : Looking for optional TEMPERATURE in: AREA=1.0
** INFO   : Looking for optional AREA in: AREA=1.0
** INFO   : Found optional keyword AREA
** INFO   : looking for keyword: QUANTITY
** INFO   : keyword QUANTITY NOT found!
** INFO   : Closed file : sourcesink_2D.ext
** INFO   : No wind, so waves is switched off
** DEBUG  :           81  6.0063999E-02 klnup(6,lnx)
** DEBUG  :           82  6.0063999E-02 slnup(6,lnx)
** DEBUG  :           82  3.0719999E-02 ij(nodtot)
** DEBUG  :           82  3.0719999E-02 nodbr2(nodtot)
** DEBUG  :           83  3.0719999E-02 nbrstk(nodtot)
** DEBUG  :           83  3.0719999E-02 nodstk(nodtot)
** DEBUG  :           83  3.0719999E-02 noel(nodtot)
** DEBUG  :           83  3.0719999E-02 noel0(nodtot)
** DEBUG  :           84  3.0719999E-02 ia(nodtot)
** DEBUG  :           84  3.0719999E-02 row(nodtot)
** DEBUG  :           84  6.0063999E-02 lv2(lintot)
** DEBUG  :           85  3.0719999E-02 jagauss(nodtot)
** DEBUG  :           89  0.1373400     ccr(0:ijstck)
** DEBUG  :           90  0.1373400     bbl(0:ijstck)
** DEBUG  :           91  6.1439998E-02 bbr(nodtot), ddr(nodtot)
** DEBUG  :           92  0.1536000     d0(nodtot), zkr(nodtot),pk(0:nodtot), apk(nodtot), rk(nodtot)
** INFO   : nogauss , nocg :          15232         15488
** INFO   : Modelinit finished   at: 14:12:57, 04-08-2014
** INFO   : * Active Model definition:
# Generated on 14:12:57, 04-08-2014
# Deltares, D-Flow FM Version 1.1.113.35125M, Jul 30 2014, 10:19:08

[model]
Program              = D-Flow FM
Version              = 1.1.113.35125M
AutoStart            = 0                   # Autostart simulation after loading MDU or not (0=no, 1=autostart, 2=autostartstop).

[geometry]
NetFile              = kanaal2dfine_net.nc # *_net.nc
BathymetryFile       =                     # *.xyb
WaterLevIniFile      =                     # Initial water levels sample file *.xyz
LandBoundaryFile     = sourcesink_2D.ldb   # Only for plotting
ThinDamFile          =                     # *_thd.pli, Polyline(s) for tracing thin dams.
FixedWeirFile        =                     # *_fxw.pli, Polyline(s) x,y,z, z = fixed weir top levels
VertplizFile         =                     # *_vlay.pliz), = pliz with x,y, Z, first Z =nr of layers, second Z = laytyp
ProflocFile          =                     # *_proflocation.xyz)    x,y,z, z = profile refnumber
ProfdefFile          =                     # *_profdefinition.def) definition for all profile nrs
ProfdefxyzFile       =                     # *_profdefinition.def) definition for all profile nrs
Uniformwidth1D       = 2.                  # Uniform width for 1D profiles not specified bij profloc
ManholeFile          =                     # *...
WaterLevIni          = 0.                  # Initial water level
Bedlevuni            = -5.                 # Uniform bottom level, (only if bedlevtype>=3, used at missing z values in netfile
BedlevType           = 3                   # 1 : Bottom levels at waterlevel cells (=flow nodes), like tiles xz, yz, bl , bob = max(bl left, bl right)
                                           # 2 : Bottom levels at velocity points  (=flow links),            xu, yu, blu, bob = blu,    bl = lowest connected link
                                           # 3 : Bottom levels at velocity points  (=flow links), using mean network levels xk, yk, zk  bl = lowest connected link
                                           # 4 : Bottom levels at velocity points  (=flow links), using min  network levels xk, yk, zk  bl = lowest connected link
                                           # 5 : Bottom levels at velocity points  (=flow links), using max  network levels xk, yk, zk  bl = lowest connected link
PartitionFile        =                     # *_part.pol, polyline(s) x,y
AngLat               = 0.                  # Angle of latitude  S-N (deg), 0=no Coriolis
AngLon               = 0.                  # Angle of longitude E-W (deg), 0=Greenwich
Conveyance2D         = 0                   # -1:R=HU,0:R=H, 1:R=A/P, 2:K=analytic-1D conv, 3:K=analytic-2D conv
Nonlin2D             = 0                   # Non-linear 2D volumes, only icm ibedlevtype = 3

[numerics]
CFLMax               = 0.7                 # Max. Courant nr.
AdvecType            = 33                  # Adv type, 0=no, 1= Wenneker, qu-udzt, 2=1, q(uio-u), 3=Perot q(uio-u), 4=Perot q(ui-u), 5=Perot q(ui-u) without itself
TimeStepType         = 2                   #  0=only transport, 1=transport + velocity update, 2=full implicit step_reduce, 3=step_jacobi, 4=explicit
Limtypmom            = 4                   # Limiter type for cell center advection velocity, 0=no, 1=minmod,2=vanLeer,3=Kooren,4=Monotone Central
Limtypsa             = 4                   # Limiter type for salinity transport,           0=no, 1=minmod,2=vanLeer,3=Kooren,4=Monotone Central
Icgsolver            = 4                   # Solver type , 1 = sobekGS_OMP, 2 = sobekGS_OMPthreadsafe, 3 = sobekGS, 4 = sobekGS + Saadilud, 5 = parallel/global Saad, 6 = parallel/Petsc, 7 = parallel/GS
Tlfsmo               = 0.                  # Fourier smoothing time on waterlevel boundaries (s)
Slopedrop2D          = 0.3                 # Apply droplosses only if local bottom slope > Slopedrop2D, <=0 =no droplosses
cstbnd               = 0                   # Delft-3D type velocity treatment near boundaries for small coastal models (1) or not (0)

[physics]
UnifFrictCoef        = 2.d-2               # Uniform friction coefficient, 0=no friction
UnifFrictType        = 1                   # 0=Chezy, 1=Manning, 2=White Colebrook, 3=z0 etc
UnifFrictCoef1D      = 2.3d-2              # Uniform friction coefficient in 1D links, 0=no friction
UnifFrictCoefLin     = 0.                  # Uniform linear friction coefficient for ocean models (m/s), 0=no
Vicouv               = 0.                  # Uniform horizontal eddy viscosity (m2/s)
Dicouv               = 0.                  # Uniform horizontal eddy diffusivity (m2/s)
Smagorinsky          = 0.                  # Add Smagorinsky horizontal turbulence : vicu = vicu + ( (Smagorinsky*dx)**2)*S, e.g. 0.1
Elder                = 0.                  # Add Elder contribution                : vicu = vicu + Elder*kappa*ustar*H/6),   e.g. 1.0
irov                 = 0                   # 0=free slip, 1 = partial slip using wall_ks
wall_ks              = 0.                  # Nikuradse roughness for side walls, wall_z0=wall_ks/30
Rhomean              = 1000.               #  Average water density (kg/m3)
Ag                   = 9.81                #  Gravitational acceleration
TidalForcing         = 0                   # Tidal forcing (0=no, 1=yes) (only for jsferic == 1)
Salinity             = 0                   # Include salinity, (0=no, 1=yes)
Temperature          = 0                   # Include temperature, (0=no, 1=only transport, 5=heat flux model (5) of D3D), 3=excess model of D3D

[wind]
ICdtyp               = 2                   # ( ),1=const, 2=S&B 2 breakpoints, 3= S&B 3 breakpoints, 4=Charnock constant
Cdbreakpoints        = 6.3d-4 7.23d-3      # ( ),   e.g. 0.00063  0.00723
Windspeedbreakpoints = 0. 100.             # (m/s), e.g. 0.0      100.0

[time]
RefDate              = 19920831            # Reference date (yyyymmdd)
Tzone                = 0.                  # Data Sources in GMT are interrogated with time in minutes since refdat-Tzone*60
Tunit                = Time                # Time units in MDU (H, M or S)
DtUser               = 60.                 # User timestep in seconds (interval for external forcing update & his/map output)
DtMax                = 20.                 # Max timestep in seconds
DtInit               = 1.                  # Initial timestep in seconds
AutoTimestep         = 1                   # Use CFL timestep limit or not (1/0)
TStart               = 0.                  # Start time w.r.t. RefDate (in TUnit)
TStop                = 86400.              # Stop  time w.r.t. RefDate (in TUnit)

[restart]
RestartFile          =                     # Restart file, only from netcdf-file, hence: either *_rst.nc or *_map.nc
RestartDateTime      =                     # Restart time (YYYYMMDDHHMMSS), only relevant in case of restart from *_map.nc

[external forcing]
ExtForceFile         = sourcesink_2D.ext   # *.ext

[output]
OutputDir            =                     # Output directory of map-, his-, rst-, dat- and timings-files, default: DFM_OUTPUT_<modelname>. Set to . for no dir/current dir.
ObsFile              =                     # *.xyn Coords+name of observation stations.
CrsFile              =                     # *_crs.pli Polyline(s) definining cross section(s).
HisInterval          = 120.                # Netcdf history output interval (s)
XLSInterval          = 0.                  # Excel XLS history interval (s)
FlowGeomFile         =                     # *_flowgeom.nc Flow geometry file in NetCDF format.
MapInterval          = 86400.              # Map file output, given as "interval" "start period" "end period" (s)
MapFormat            = 1                   # Map file format, 1: netCDF, 2: Tecplot, 3: netCFD and Tecplot
RstInterval          = 0.                  # Restart file output, given as "interval" "start period" "end period" (s)
WaqInterval          = 0.                  # Interval (in s) between Delwaq file outputs
StatsInterval        = 0.                  # Interval (in s) between simulation statistics output.
TimingsInterval      = 0.                  # Timings output interval
TimeSplitInterval    = 0X                  # Time splitting interval, after which a new output file is started. value+unit, e.g. '1 M', valid units: Y,M,D,h,m,s.
MapOutputTimeVector  =                     # File (.mpt) containing fixed map output times (s) w.r.t. RefDate
FullGridOutput       = 0                   # 0:compact, 1:full time-varying grid data

[trachytopes]
TrtRou               = N                   # Include alluvial and vegetation roughness (trachytopes), (N=no, Y=yes)
TrtDef               = *.ttd               # Filename including trachytope definitions
Trtl                 = *.arl               # Filename including distribution of trachytope definitions
DtTrt                = 60                  # Updates trachytope roughness at specific time interval
** INFO   : **
** WARNING: No observations nor cross sections defined. Will not produce a history file.
** DEBUG  : Opened NetCDF file 'DFM_OUTPUT_sourcesink_2d\sourcesink_2d_map.nc' as #         3.
** DEBUG  :           92  3.2099999E-02 rn(numk)
** INFO   : User interrupt
** INFO   : User interrupt
** INFO   : Values at flow nodes
** INFO   : Node velocity magnitude            (m/s)
** INFO   : Values at cell corners
** INFO   : Do NOt show values at flow cell corners
** INFO   : Values at flow links
** INFO   : Vorticity                        ( 1/s )
** INFO   : Values at flow nodes
** INFO   : NO
** INFO   : Display mode net/flow links
** INFO   : ISOfil SMOOTH
** DEBUG  :           92  3.2099999E-02 rn(numk)
** INFO   : User interrupt
** INFO   : User interrupt
** INFO   : User interrupt
** INFO   : User interrupt
** INFO   : User interrupt
** INFO   : User interrupt
** INFO   : User interrupt
