# D-Flow FM mdu-file, generated by Matlab on 13:56:07, 01-11-2013.
# This standardized mdu-file is intended to only be used for the testbench.

[model]
Program                            =  D-Flow FM
Version                            =  
AutoStart                          =  0                   
 
[geometry]
NetFile                            =  kanaal2dfine_net.nc   
BathymetryFile                     =                      
WaterLevIniFile                    =                                     
LandBoundaryFile                   = sourcesink_2D.ldb                     
ThinDamFile                        =                      
FixedWeirFile                      =                      
ProflocFile                        =                                     
ProfdefFile                        =                                     
ManholeFile                        =                                     
WaterLevIni                        =  0.                  
Bedlevuni                          =  -5.                 
Bedslope                           =                                     
BedlevType                         =  3                   
PartitionFile                      =                                     
AngLat                             =  0.                  
Conveyance2D                       =  0                   
Sillheightmin                      =                                     
Kmx                                =                                     
Makeorthocenters                   =  0                                  
Dcenterinside                      =  1.                                 
 
[numerics]
CFLMax                             =  0.7                 
CFLWaveFrac                        =  0.1                 
AdvecType                          =
Icoriolistype                      =                                     
Limtyphu                           =
Limtypmom                          =
Limtypsa                           =
Icgsolver                          =
Maxdegree                          =  6                                  
FixedWeirScheme                    =                                     
FixedWeirContraction               =                                     
Izbndpos                           =
Jbasqbnddownwindhs                 =
Tlfsmo                             =
Slopedrop2D                        =  0.3                                
Lincontin                          =                                     
Jaembed1D                          =                                     
Chkadvd                            =                                     
Teta0                              =                                     
Maxitverticalforester              =                                     
 
[physics]
UnifFrictCoef                      =  2.d-2               
UnifFrictType                      =  1                   
UnifFrictCoefLin                   =  0.                                 
Umodlin                            =                                     
Vicouv                             =  0.                  
Dicouv                             =  0.0000000                          
Vicoww                             =  0.                  
Dicoww                             =  0.0000000                          
Smagorinsky                        =  0.                  
Elder                              =  0.                  
irov                               =  0                   
wall_ks                            =  0.                  
TidalForcing                       =  1                   
Ag                                 =  9.81                               
Salinity                           =  0                                  
InitialSalinity                    =  31.0000000                         
Rhomean                            =  1000.0000000                       
 
[wind]
ICdtyp                             =  2                                  
Cdbreakpoints                      =  6.3d-4 7.23d-3                     
Windspeedbreakpoints               =  0. 100.                            
Rhoair                             =  1.20000004768372                   
PavBnd                             =  101325.0000000                     
Gapres                             =  101325.0000000                     
 
[time]
RefDate                            =  19920831            
Tunit                              =  S                
DtUser                             =  60.                 
DtMax                              =  20.                 
DtInit                             =  1.                  
AutoTimestep                       =  1                   
TStart                             =  0.                  
TStop                              =  86400.              
 
[restart]
RestartFile                        =                                     
RestartDateTime                    =                                     
 
[external forcing]
ExtForceFile                       =  sourcesink_2D.ext            
 
[output]
OutputDir                          =  
ObsFile                            =                      
CrsFile                            =                      
HisFile                            =                      
HisInterval                        =  120.                
XLSInterval                        =                                     
FlowGeomFile                       =                                     
MapFile                            =                      
MapInterval                        =  86400.               
MapFormat                          =  1                                  
RstInterval                        =  0.                  
S1incinterval                      =                                     
WaqFileBase                        =  
WaqInterval                        =  0.                  
StatsInterval                      =                                     
SnapshotDir                        =                      
TimingsInterval                    =                                     
TimeSplitInterval                  =  0X                                 
MapOutputTimeVector                =                                     
FullGridOutput                     =  0                                  
 
