*
* Deltares, Delft3D-QUICKIN Version 4.18.01.18383, Sep  7 2011, 14:23:24
* File creation date: 2013-10-21, 15:29:59
*
L001
      30   2
   2.3116924E+06   5.0417929E+06
   2.3111204E+06   5.0412342E+06
   2.3104419E+06   5.0407420E+06
   2.3090052E+06   5.0399571E+06
   2.3090850E+06   5.0396910E+06
   2.3088456E+06   5.0396777E+06
   2.3085928E+06   5.0398108E+06
   2.3083002E+06   5.0397043E+06
   2.3079676E+06   5.0394250E+06
   2.3083268E+06   5.0391589E+06
   2.3086860E+06   5.0392520E+06
   2.3096305E+06   5.0398374E+06
   2.3099098E+06   5.0400236E+06
   2.3100029E+06   5.0399172E+06
   2.3102690E+06   5.0402231E+06
   2.3105616E+06   5.0399172E+06
   2.3108410E+06   5.0401034E+06
   2.3108410E+06   5.0405025E+06
   2.3112800E+06   5.0404227E+06
   2.3116392E+06   5.0404360E+06
   2.3122777E+06   5.0409415E+06
   2.3127167E+06   5.0408617E+06
   2.3126502E+06   5.0416199E+06
   2.3123442E+06   5.0415135E+06
   2.3118786E+06   5.0409415E+06
   2.3117589E+06   5.0411410E+06
   2.3117456E+06   5.0415002E+06
   2.3118653E+06   5.0416598E+06
   2.3116791E+06   5.0417796E+06
   2.3116924E+06   5.0417929E+06
L002
      24   2
   2.3163882E+06   5.0385071E+06
   2.3162020E+06   5.0383608E+06
   2.3160291E+06   5.0378553E+06
   2.3157896E+06   5.0374961E+06
   2.3155901E+06   5.0373498E+06
   2.3152974E+06   5.0374695E+06
   2.3149649E+06   5.0373764E+06
   2.3146057E+06   5.0372965E+06
   2.3144061E+06   5.0370438E+06
   2.3144327E+06   5.0369507E+06
   2.3151112E+06   5.0372566E+06
   2.3153506E+06   5.0371768E+06
   2.3154571E+06   5.0370571E+06
   2.3157497E+06   5.0371635E+06
   2.3158960E+06   5.0370305E+06
   2.3160025E+06   5.0368176E+06
   2.3163217E+06   5.0369640E+06
   2.3166809E+06   5.0369640E+06
   2.3168006E+06   5.0377488E+06
   2.3164681E+06   5.0374828E+06
   2.3163616E+06   5.0377754E+06
   2.3164814E+06   5.0381878E+06
   2.3163749E+06   5.0384805E+06
   2.3163882E+06   5.0385071E+06
L003
      12   2
   2.3149915E+06   5.0370970E+06
   2.3150181E+06   5.0369773E+06
   2.3152442E+06   5.0368709E+06
   2.3152043E+06   5.0366447E+06
   2.3151112E+06   5.0365782E+06
   2.3151644E+06   5.0362456E+06
   2.3152309E+06   5.0362456E+06
   2.3153506E+06   5.0364984E+06
   2.3153905E+06   5.0369241E+06
   2.3151245E+06   5.0371103E+06
   2.3150580E+06   5.0371103E+06
   2.3149915E+06   5.0370970E+06
L004
       7   2
   2.3172130E+06   5.0362855E+06
   2.3167075E+06   5.0359397E+06
   2.3168805E+06   5.0359397E+06
   2.3171465E+06   5.0359929E+06
   2.3172130E+06   5.0361924E+06
   2.3172130E+06   5.0362855E+06
   2.3172130E+06   5.0362855E+06
L005
      10   2
   2.3175589E+06   5.0359663E+06
   2.3174924E+06   5.0358998E+06
   2.3175722E+06   5.0358066E+06
   2.3175722E+06   5.0357002E+06
   2.3177318E+06   5.0357401E+06
   2.3179447E+06   5.0357401E+06
   2.3180112E+06   5.0358598E+06
   2.3177983E+06   5.0358731E+06
   2.3176121E+06   5.0360062E+06
   2.3175589E+06   5.0359663E+06
L006
      17   2
   2.3181442E+06   5.0389860E+06
   2.3182772E+06   5.0387998E+06
   2.3181309E+06   5.0386800E+06
   2.3179580E+06   5.0387199E+06
   2.3178382E+06   5.0387731E+06
   2.3175722E+06   5.0387066E+06
   2.3176653E+06   5.0385204E+06
   2.3179314E+06   5.0385869E+06
   2.3180777E+06   5.0383608E+06
   2.3181841E+06   5.0383209E+06
   2.3182240E+06   5.0386135E+06
   2.3183438E+06   5.0385603E+06
   2.3183305E+06   5.0383342E+06
   2.3185300E+06   5.0386135E+06
   2.3184635E+06   5.0389727E+06
   2.3182240E+06   5.0390525E+06
   2.3181442E+06   5.0389860E+06
L007
       6   2
   2.3189557E+06   5.0386534E+06
   2.3190089E+06   5.0383076E+06
   2.3191419E+06   5.0384007E+06
   2.3192749E+06   5.0386135E+06
   2.3190488E+06   5.0387465E+06
   2.3189557E+06   5.0386534E+06
L008
       5   2
   2.3194213E+06   5.0380947E+06
   2.3195277E+06   5.0379617E+06
   2.3195942E+06   5.0381745E+06
   2.3194612E+06   5.0381745E+06
   2.3194213E+06   5.0380947E+06
L009
      11   2
   2.3233456E+06   5.0379484E+06
   2.3230662E+06   5.0376424E+06
   2.3223080E+06   5.0375227E+06
   2.3218424E+06   5.0373897E+06
   2.3216694E+06   5.0371103E+06
   2.3220020E+06   5.0372167E+06
   2.3222681E+06   5.0374562E+06
   2.3228667E+06   5.0374429E+06
   2.3232126E+06   5.0376823E+06
   2.3233722E+06   5.0378952E+06
   2.3233456E+06   5.0379484E+06
L010
      12   2
   2.3215364E+06   5.0386933E+06
   2.3219089E+06   5.0385337E+06
   2.3222814E+06   5.0385071E+06
   2.3226139E+06   5.0386800E+06
   2.3230130E+06   5.0390525E+06
   2.3230928E+06   5.0395181E+06
   2.3230795E+06   5.0397975E+06
   2.3229066E+06   5.0398773E+06
   2.3224809E+06   5.0392920E+06
   2.3220286E+06   5.0387998E+06
   2.3215630E+06   5.0386800E+06
   2.3215364E+06   5.0386933E+06
L011
      27   2
   2.3222149E+06   5.0410080E+06
   2.3225474E+06   5.0403695E+06
   2.3223370E+06   5.0401889E+06
   2.3222415E+06   5.0401300E+06
   2.3223745E+06   5.0399571E+06
   2.3222548E+06   5.0397309E+06
   2.3219621E+06   5.0395713E+06
   2.3217227E+06   5.0395846E+06
   2.3216960E+06   5.0399970E+06
   2.3217759E+06   5.0403163E+06
   2.3214300E+06   5.0407686E+06
   2.3213236E+06   5.0409548E+06
   2.3214699E+06   5.0414337E+06
   2.3211373E+06   5.0410878E+06
   2.3212171E+06   5.0406754E+06
   2.3214566E+06   5.0403695E+06
   2.3214566E+06   5.0399438E+06
   2.3210043E+06   5.0395846E+06
   2.3207116E+06   5.0395048E+06
   2.3206185E+06   5.0393452E+06
   2.3209910E+06   5.0390525E+06
   2.3216960E+06   5.0389328E+06
   2.3222149E+06   5.0392653E+06
   2.3224809E+06   5.0397842E+06
   2.3228534E+06   5.0400635E+06
   2.3222681E+06   5.0410346E+06
   2.3222149E+06   5.0410080E+06
L012
      44   2
   2.3212246E+06   5.0405768E+06
   2.3213617E+06   5.0403832E+06
   2.3213455E+06   5.0400929E+06
   2.3211197E+06   5.0398509E+06
   2.3209342E+06   5.0396654E+06
   2.3206842E+06   5.0396816E+06
   2.3205471E+06   5.0396574E+06
   2.3204745E+06   5.0394799E+06
   2.3204664E+06   5.0393267E+06
   2.3205793E+06   5.0391654E+06
   2.3207164E+06   5.0390121E+06
   2.3202567E+06   5.0388105E+06
   2.3198212E+06   5.0393025E+06
   2.3195792E+06   5.0398348E+06
   2.3195954E+06   5.0401413E+06
   2.3198131E+06   5.0402542E+06
   2.3198857E+06   5.0404639E+06
   2.3200793E+06   5.0406575E+06
   2.3202083E+06   5.0404478E+06
   2.3201277E+06   5.0402219E+06
   2.3200067E+06   5.0399961E+06
   2.3198534E+06   5.0398106E+06
   2.3199502E+06   5.0398832E+06
   2.3201277E+06   5.0398671E+06
   2.3201599E+06   5.0397380E+06
   2.3201599E+06   5.0394719E+06
   2.3201438E+06   5.0393025E+06
   2.3202245E+06   5.0391654E+06
   2.3203938E+06   5.0391734E+06
   2.3203858E+06   5.0393267E+06
   2.3202648E+06   5.0393751E+06
   2.3203374E+06   5.0396574E+06
   2.3203616E+06   5.0398509E+06
   2.3204906E+06   5.0400122E+06
   2.3206681E+06   5.0399074E+06
   2.3208294E+06   5.0400284E+06
   2.3208858E+06   5.0398187E+06
   2.3211036E+06   5.0399477E+06
   2.3212165E+06   5.0401413E+06
   2.3211197E+06   5.0402381E+06
   2.3212407E+06   5.0402461E+06
   2.3212568E+06   5.0404155E+06
   2.3212407E+06   5.0405446E+06
   2.3212246E+06   5.0405768E+06
L013
      11   2
   2.3192969E+06   5.0394799E+06
   2.3190469E+06   5.0394315E+06
   2.3191195E+06   5.0393025E+06
   2.3190227E+06   5.0390686E+06
   2.3189179E+06   5.0391089E+06
   2.3190066E+06   5.0389960E+06
   2.3191356E+06   5.0389879E+06
   2.3192647E+06   5.0390767E+06
   2.3194099E+06   5.0391734E+06
   2.3193292E+06   5.0394477E+06
   2.3192969E+06   5.0394799E+06
L014
      15   2
   2.3185549E+06   5.0401897E+06
   2.3188130E+06   5.0402865E+06
   2.3191195E+06   5.0403268E+06
   2.3192002E+06   5.0403026E+06
   2.3192485E+06   5.0399477E+06
   2.3191518E+06   5.0397541E+06
   2.3189582E+06   5.0398267E+06
   2.3190469E+06   5.0400042E+06
   2.3189259E+06   5.0401010E+06
   2.3190792E+06   5.0401010E+06
   2.3191114E+06   5.0401977E+06
   2.3189098E+06   5.0401897E+06
   2.3186678E+06   5.0401655E+06
   2.3185791E+06   5.0401413E+06
   2.3185549E+06   5.0401897E+06
L015
      28   2
   2.3197163E+06   5.0402865E+06
   2.3197647E+06   5.0405042E+06
   2.3199018E+06   5.0407865E+06
   2.3198696E+06   5.0409559E+06
   2.3196437E+06   5.0410204E+06
   2.3194824E+06   5.0408833E+06
   2.3191921E+06   5.0408510E+06
   2.3191518E+06   5.0409156E+06
   2.3191114E+06   5.0412624E+06
   2.3191840E+06   5.0413914E+06
   2.3193453E+06   5.0415124E+06
   2.3194905E+06   5.0414882E+06
   2.3196760E+06   5.0413914E+06
   2.3197647E+06   5.0413753E+06
   2.3196599E+06   5.0415124E+06
   2.3193050E+06   5.0415769E+06
   2.3191437E+06   5.0414640E+06
   2.3189582E+06   5.0411817E+06
   2.3186517E+06   5.0409478E+06
   2.3184178E+06   5.0409801E+06
   2.3183775E+06   5.0407381E+06
   2.3184259E+06   5.0405284E+06
   2.3187727E+06   5.0406333E+06
   2.3191840E+06   5.0406091E+06
   2.3193857E+06   5.0405204E+06
   2.3195550E+06   5.0403107E+06
   2.3196599E+06   5.0402623E+06
   2.3197163E+06   5.0402865E+06
L016
       9   2
   2.3181517E+06   5.0411172E+06
   2.3179661E+06   5.0411011E+06
   2.3180065E+06   5.0408430E+06
   2.3180549E+06   5.0406091E+06
   2.3181839E+06   5.0405446E+06
   2.3183049E+06   5.0407059E+06
   2.3182888E+06   5.0410446E+06
   2.3181678E+06   5.0411414E+06
   2.3181517E+06   5.0411172E+06
L017
       7   2
   2.3186598E+06   5.0414721E+06
   2.3186759E+06   5.0413108E+06
   2.3187162E+06   5.0412301E+06
   2.3186436E+06   5.0411172E+06
   2.3189663E+06   5.0414156E+06
   2.3186678E+06   5.0415124E+06
   2.3186598E+06   5.0414721E+06
L018
      21   2
   2.3186598E+06   5.0416172E+06
   2.3190227E+06   5.0415124E+06
   2.3192808E+06   5.0416414E+06
   2.3194018E+06   5.0416414E+06
   2.3196518E+06   5.0415769E+06
   2.3197647E+06   5.0415769E+06
   2.3197728E+06   5.0417463E+06
   2.3198454E+06   5.0419721E+06
   2.3195712E+06   5.0419721E+06
   2.3194502E+06   5.0417786E+06
   2.3193534E+06   5.0417463E+06
   2.3192324E+06   5.0417382E+06
   2.3191356E+06   5.0416495E+06
   2.3189743E+06   5.0416253E+06
   2.3189421E+06   5.0416737E+06
   2.3190792E+06   5.0418189E+06
   2.3192485E+06   5.0419318E+06
   2.3191518E+06   5.0419560E+06
   2.3188856E+06   5.0417382E+06
   2.3186759E+06   5.0416414E+06
   2.3186598E+06   5.0416172E+06
L019
      22   2
   2.3153232E+06   5.0413837E+06
   2.3152860E+06   5.0412443E+06
   2.3155555E+06   5.0411420E+06
   2.3157042E+06   5.0410398E+06
   2.3158529E+06   5.0409097E+06
   2.3160573E+06   5.0408725E+06
   2.3163733E+06   5.0410119E+06
   2.3165778E+06   5.0410305E+06
   2.3165127E+06   5.0408261E+06
   2.3166149E+06   5.0407238E+06
   2.3167636E+06   5.0408075E+06
   2.3167451E+06   5.0410305E+06
   2.3165964E+06   5.0412536E+06
   2.3163826E+06   5.0413372E+06
   2.3163733E+06   5.0411699E+06
   2.3161689E+06   5.0411328E+06
   2.3159086E+06   5.0410491E+06
   2.3158064E+06   5.0412257E+06
   2.3156020E+06   5.0413651E+06
   2.3154904E+06   5.0413930E+06
   2.3153789E+06   5.0414208E+06
   2.3153232E+06   5.0413837E+06
L020
      10   2
   2.3169030E+06   5.0408354E+06
   2.3169681E+06   5.0406123E+06
   2.3170517E+06   5.0406123E+06
   2.3172004E+06   5.0406495E+06
   2.3172562E+06   5.0406030E+06
   2.3172841E+06   5.0407982E+06
   2.3174142E+06   5.0408818E+06
   2.3173956E+06   5.0410026E+06
   2.3171075E+06   5.0408725E+06
   2.3169030E+06   5.0408354E+06
L021
      42   2
   2.3174792E+06   5.0410770E+06
   2.3176744E+06   5.0411885E+06
   2.3175071E+06   5.0415881E+06
   2.3172376E+06   5.0415417E+06
   2.3169402E+06   5.0416067E+06
   2.3169681E+06   5.0418483E+06
   2.3170703E+06   5.0421550E+06
   2.3166986E+06   5.0426476E+06
   2.3163826E+06   5.0427684E+06
   2.3161596E+06   5.0426940E+06
   2.3160852E+06   5.0427498E+06
   2.3160109E+06   5.0428706E+06
   2.3158980E+06   5.0426918E+06
   2.3159393E+06   5.0424993E+06
   2.3158293E+06   5.0424580E+06
   2.3156917E+06   5.0426918E+06
   2.3156642E+06   5.0428569E+06
   2.3157743E+06   5.0433245E+06
   2.3159255E+06   5.0439571E+06
   2.3147428E+06   5.0442321E+06
   2.3145228E+06   5.0439708E+06
   2.3143302E+06   5.0435170E+06
   2.3140414E+06   5.0431869E+06
   2.3141377E+06   5.0428706E+06
   2.3144265E+06   5.0428156E+06
   2.3145778E+06   5.0430219E+06
   2.3146878E+06   5.0427331E+06
   2.3148253E+06   5.0425268E+06
   2.3151141E+06   5.0425268E+06
   2.3154442E+06   5.0424168E+06
   2.3155817E+06   5.0421967E+06
   2.3158980E+06   5.0421417E+06
   2.3160768E+06   5.0420042E+06
   2.3161593E+06   5.0418667E+06
   2.3163794E+06   5.0417704E+06
   2.3165169E+06   5.0415229E+06
   2.3166407E+06   5.0414128E+06
   2.3168195E+06   5.0414403E+06
   2.3171358E+06   5.0413441E+06
   2.3173283E+06   5.0412203E+06
   2.3174108E+06   5.0410965E+06
   2.3174792E+06   5.0410770E+06
L022
      13   2
   2.3175208E+06   5.0427056E+06
   2.3174246E+06   5.0426643E+06
   2.3174933E+06   5.0423893E+06
   2.3175346E+06   5.0422105E+06
   2.3172870E+06   5.0419767E+06
   2.3171220E+06   5.0419905E+06
   2.3170945E+06   5.0417842E+06
   2.3172595E+06   5.0417154E+06
   2.3176171E+06   5.0419354E+06
   2.3177684E+06   5.0421830E+06
   2.3176034E+06   5.0424580E+06
   2.3175208E+06   5.0427468E+06
   2.3175208E+06   5.0427056E+06
L023
       7   2
   2.3176996E+06   5.0428706E+06
   2.3176309E+06   5.0425681E+06
   2.3178509E+06   5.0423893E+06
   2.3179059E+06   5.0424718E+06
   2.3178234E+06   5.0427468E+06
   2.3177134E+06   5.0428431E+06
   2.3176996E+06   5.0428706E+06
L024
      61   2
   2.3166132E+06   5.0450848E+06
   2.3167094E+06   5.0452911E+06
   2.3170395E+06   5.0452911E+06
   2.3172595E+06   5.0451673E+06
   2.3176309E+06   5.0449610E+06
   2.3177821E+06   5.0445347E+06
   2.3176721E+06   5.0442596E+06
   2.3174658E+06   5.0443834E+06
   2.3174383E+06   5.0441909E+06
   2.3174933E+06   5.0438746E+06
   2.3173833E+06   5.0435720E+06
   2.3172870E+06   5.0432419E+06
   2.3173421E+06   5.0431182E+06
   2.3175483E+06   5.0432282E+06
   2.3181397E+06   5.0434895E+06
   2.3185935E+06   5.0436133E+06
   2.3190336E+06   5.0437920E+06
   2.3193912E+06   5.0438471E+06
   2.3195837E+06   5.0434482E+06
   2.3197350E+06   5.0429531E+06
   2.3198038E+06   5.0424718E+06
   2.3196250E+06   5.0422242E+06
   2.3195012E+06   5.0420867E+06
   2.3199275E+06   5.0421692E+06
   2.3199551E+06   5.0425681E+06
   2.3202026E+06   5.0427193E+06
   2.3205189E+06   5.0429119E+06
   2.3207527E+06   5.0430907E+06
   2.3205189E+06   5.0432557E+06
   2.3202851E+06   5.0430219E+06
   2.3201063E+06   5.0431319E+06
   2.3202989E+06   5.0434482E+06
   2.3201613E+06   5.0439571E+06
   2.3199688E+06   5.0445759E+06
   2.3199551E+06   5.0449610E+06
   2.3202576E+06   5.0451398E+06
   2.3206702E+06   5.0453186E+06
   2.3205602E+06   5.0455936E+06
   2.3200788E+06   5.0457587E+06
   2.3199000E+06   5.0453461E+06
   2.3198313E+06   5.0450023E+06
   2.3195837E+06   5.0446997E+06
   2.3192124E+06   5.0446722E+06
   2.3189786E+06   5.0441634E+06
   2.3183598E+06   5.0437233E+06
   2.3180985E+06   5.0437233E+06
   2.3178922E+06   5.0438333E+06
   2.3179884E+06   5.0442596E+06
   2.3178784E+06   5.0448235E+06
   2.3178096E+06   5.0453736E+06
   2.3174933E+06   5.0454011E+06
   2.3173283E+06   5.0458274E+06
   2.3172733E+06   5.0459650E+06
   2.3171908E+06   5.0457724E+06
   2.3171220E+06   5.0455111E+06
   2.3169707E+06   5.0454561E+06
   2.3167644E+06   5.0456211E+06
   2.3166544E+06   5.0455524E+06
   2.3165857E+06   5.0452361E+06
   2.3166132E+06   5.0450573E+06
   2.3166132E+06   5.0450848E+06
L025
      22   2
   2.3227740E+06   5.0484863E+06
   2.3223392E+06   5.0482195E+06
   2.3220033E+06   5.0478539E+06
   2.3216180E+06   5.0476069E+06
   2.3214994E+06   5.0474884E+06
   2.3216575E+06   5.0468165E+06
   2.3216772E+06   5.0464509E+06
   2.3218255E+06   5.0462237E+06
   2.3218946E+06   5.0461743E+06
   2.3220725E+06   5.0463126E+06
   2.3222207E+06   5.0465003E+06
   2.3225566E+06   5.0466288E+06
   2.3226455E+06   5.0469153E+06
   2.3229222E+06   5.0469845E+06
   2.3231099E+06   5.0468659E+06
   2.3232680E+06   5.0469054E+06
   2.3235051E+06   5.0468955E+06
   2.3233174E+06   5.0472018E+06
   2.3233964E+06   5.0475971E+06
   2.3230210E+06   5.0479923E+06
   2.3227937E+06   5.0484764E+06
   2.3227740E+06   5.0484863E+06
L026
      11   2
   2.3228629E+06   5.0485258E+06
   2.3230111E+06   5.0484072E+06
   2.3232878E+06   5.0485258E+06
   2.3234854E+06   5.0484369E+06
   2.3238411E+06   5.0484566E+06
   2.3236928E+06   5.0486147E+06
   2.3238806E+06   5.0487629E+06
   2.3246315E+06   5.0490100E+06
   2.3245623E+06   5.0490594E+06
   2.3229024E+06   5.0486049E+06
   2.3228629E+06   5.0485258E+06
L027
      15   2
   2.3229321E+06   5.0482887E+06
   2.3230210E+06   5.0481899E+06
   2.3233174E+06   5.0483480E+06
   2.3235842E+06   5.0482689E+06
   2.3237225E+06   5.0481108E+06
   2.3236336E+06   5.0478935E+06
   2.3235249E+06   5.0478144E+06
   2.3236138E+06   5.0477650E+06
   2.3239201E+06   5.0479429E+06
   2.3238312E+06   5.0482986E+06
   2.3236138E+06   5.0483677E+06
   2.3233075E+06   5.0484665E+06
   2.3231297E+06   5.0483282E+06
   2.3229419E+06   5.0482887E+06
   2.3229321E+06   5.0482887E+06
L028
      47   2
   2.3245722E+06   5.0471821E+06
   2.3246809E+06   5.0472216E+06
   2.3249081E+06   5.0472216E+06
   2.3246512E+06   5.0467869E+06
   2.3248291E+06   5.0465695E+06
   2.3243944E+06   5.0462830E+06
   2.3244734E+06   5.0461249E+06
   2.3245722E+06   5.0459865E+06
   2.3242758E+06   5.0457692E+06
   2.3243153E+06   5.0454530E+06
   2.3239596E+06   5.0452554E+06
   2.3237719E+06   5.0450677E+06
   2.3239102E+06   5.0449096E+06
   2.3238213E+06   5.0448701E+06
   2.3238905E+06   5.0445835E+06
   2.3239399E+06   5.0444156E+06
   2.3240584E+06   5.0444353E+06
   2.3240584E+06   5.0443365E+06
   2.3236632E+06   5.0443563E+06
   2.3236039E+06   5.0441389E+06
   2.3233964E+06   5.0438227E+06
   2.3232581E+06   5.0436251E+06
   2.3230210E+06   5.0436647E+06
   2.3226159E+06   5.0435856E+06
   2.3222701E+06   5.0435560E+06
   2.3222207E+06   5.0436647E+06
   2.3225862E+06   5.0437635E+06
   2.3224380E+06   5.0439709E+06
   2.3222009E+06   5.0441093E+06
   2.3222207E+06   5.0442377E+06
   2.3225665E+06   5.0441686E+06
   2.3228135E+06   5.0441784E+06
   2.3230210E+06   5.0447317E+06
   2.3234854E+06   5.0450578E+06
   2.3237719E+06   5.0453740E+06
   2.3239300E+06   5.0453740E+06
   2.3242066E+06   5.0457297E+06
   2.3241177E+06   5.0459371E+06
   2.3242462E+06   5.0459273E+06
   2.3242462E+06   5.0461249E+06
   2.3240090E+06   5.0463225E+06
   2.3242857E+06   5.0464707E+06
   2.3245129E+06   5.0467375E+06
   2.3246216E+06   5.0468659E+06
   2.3246117E+06   5.0471129E+06
   2.3245722E+06   5.0471623E+06
   2.3245722E+06   5.0471821E+06
L029
      21   2
   2.3231889E+06   5.0435659E+06
   2.3229716E+06   5.0435659E+06
   2.3227345E+06   5.0433386E+06
   2.3225368E+06   5.0428545E+06
   2.3222503E+06   5.0419356E+06
   2.3221910E+06   5.0415107E+06
   2.3225270E+06   5.0411353E+06
   2.3227048E+06   5.0409969E+06
   2.3228925E+06   5.0408981E+06
   2.3230407E+06   5.0407895E+06
   2.3232087E+06   5.0408981E+06
   2.3232878E+06   5.0412242E+06
   2.3231692E+06   5.0410266E+06
   2.3228827E+06   5.0411254E+06
   2.3228135E+06   5.0414218E+06
   2.3225862E+06   5.0419455E+06
   2.3226949E+06   5.0427458E+06
   2.3227740E+06   5.0431805E+06
   2.3229617E+06   5.0433485E+06
   2.3231889E+06   5.0435066E+06
   2.3231889E+06   5.0435659E+06
L030
      24   2
   2.3243944E+06   5.0420838E+06
   2.3239893E+06   5.0420838E+06
   2.3238411E+06   5.0419652E+06
   2.3237719E+06   5.0415997E+06
   2.3240485E+06   5.0415008E+06
   2.3243647E+06   5.0413526E+06
   2.3245920E+06   5.0412341E+06
   2.3248587E+06   5.0410365E+06
   2.3250860E+06   5.0408092E+06
   2.3253132E+06   5.0406511E+06
   2.3255504E+06   5.0407697E+06
   2.3252342E+06   5.0408586E+06
   2.3249279E+06   5.0411155E+06
   2.3247402E+06   5.0413230E+06
   2.3246117E+06   5.0415601E+06
   2.3244438E+06   5.0413625E+06
   2.3241375E+06   5.0415799E+06
   2.3239003E+06   5.0416985E+06
   2.3239201E+06   5.0418961E+06
   2.3240584E+06   5.0419949E+06
   2.3242462E+06   5.0419652E+06
   2.3244141E+06   5.0419652E+06
   2.3245030E+06   5.0420739E+06
   2.3243944E+06   5.0420838E+06
L031
      13   2
   2.3240881E+06   5.0414218E+06
   2.3241276E+06   5.0413526E+06
   2.3238213E+06   5.0414020E+06
   2.3236039E+06   5.0414514E+06
   2.3235644E+06   5.0410859E+06
   2.3234360E+06   5.0408389E+06
   2.3233767E+06   5.0409179E+06
   2.3233767E+06   5.0412143E+06
   2.3235446E+06   5.0414514E+06
   2.3236336E+06   5.0415502E+06
   2.3237818E+06   5.0415206E+06
   2.3239596E+06   5.0414317E+06
   2.3240881E+06   5.0414218E+06
L032
      40   2
   2.3266076E+06   5.0431706E+06
   2.3265483E+06   5.0430620E+06
   2.3267854E+06   5.0427853E+06
   2.3269435E+06   5.0425284E+06
   2.3269336E+06   5.0421431E+06
   2.3267558E+06   5.0417874E+06
   2.3267657E+06   5.0415997E+06
   2.3268842E+06   5.0413032E+06
   2.3270225E+06   5.0408883E+06
   2.3270621E+06   5.0409871E+06
   2.3271016E+06   5.0410266E+06
   2.3272300E+06   5.0409377E+06
   2.3273585E+06   5.0408586E+06
   2.3273190E+06   5.0406215E+06
   2.3274276E+06   5.0406511E+06
   2.3275264E+06   5.0410958E+06
   2.3278031E+06   5.0412044E+06
   2.3280501E+06   5.0411748E+06
   2.3283169E+06   5.0410266E+06
   2.3285342E+06   5.0408290E+06
   2.3288307E+06   5.0406413E+06
   2.3289295E+06   5.0404634E+06
   2.3288998E+06   5.0401571E+06
   2.3290974E+06   5.0400781E+06
   2.3290579E+06   5.0408685E+06
   2.3288801E+06   5.0412934E+06
   2.3286627E+06   5.0417973E+06
   2.3283959E+06   5.0414514E+06
   2.3282082E+06   5.0415898E+06
   2.3276944E+06   5.0416293E+06
   2.3278821E+06   5.0420245E+06
   2.3275660E+06   5.0418565E+06
   2.3275166E+06   5.0415601E+06
   2.3271115E+06   5.0415305E+06
   2.3269237E+06   5.0416491E+06
   2.3272103E+06   5.0418467E+06
   2.3272992E+06   5.0421332E+06
   2.3272300E+06   5.0427359E+06
   2.3266076E+06   5.0431805E+06
   2.3266076E+06   5.0431706E+06
L033
      18   2
   2.3264396E+06   5.0427161E+06
   2.3265088E+06   5.0425778E+06
   2.3266570E+06   5.0425778E+06
   2.3267854E+06   5.0424395E+06
   2.3266767E+06   5.0421431E+06
   2.3265285E+06   5.0420344E+06
   2.3263408E+06   5.0420542E+06
   2.3262321E+06   5.0421628E+06
   2.3260938E+06   5.0423110E+06
   2.3260345E+06   5.0422221E+06
   2.3263013E+06   5.0419356E+06
   2.3265186E+06   5.0418664E+06
   2.3266866E+06   5.0418961E+06
   2.3268447E+06   5.0421826E+06
   2.3268052E+06   5.0425482E+06
   2.3265977E+06   5.0427655E+06
   2.3264692E+06   5.0427655E+06
   2.3264396E+06   5.0427161E+06
L034
      28   2
   2.3271806E+06   5.0405721E+06
   2.3273684E+06   5.0405424E+06
   2.3275363E+06   5.0403053E+06
   2.3276648E+06   5.0402658E+06
   2.3274079E+06   5.0398607E+06
   2.3263507E+06   5.0392975E+06
   2.3261234E+06   5.0389319E+06
   2.3257974E+06   5.0386553E+06
   2.3252144E+06   5.0385664E+06
   2.3249477E+06   5.0386553E+06
   2.3245623E+06   5.0384083E+06
   2.3244042E+06   5.0382403E+06
   2.3239794E+06   5.0381415E+06
   2.3241770E+06   5.0383688E+06
   2.3242462E+06   5.0387541E+06
   2.3249279E+06   5.0388233E+06
   2.3252737E+06   5.0389023E+06
   2.3250761E+06   5.0390307E+06
   2.3249773E+06   5.0391394E+06
   2.3251354E+06   5.0392382E+06
   2.3257183E+06   5.0391888E+06
   2.3261333E+06   5.0393766E+06
   2.3262321E+06   5.0396927E+06
   2.3266767E+06   5.0399002E+06
   2.3269929E+06   5.0400484E+06
   2.3272300E+06   5.0401472E+06
   2.3271905E+06   5.0405721E+06
   2.3271806E+06   5.0405721E+06
