*
* Deltares, Delft3D-QUICKIN Version 4.18.01.18383, Sep  7 2011, 14:23:24
* File creation date: 2013-10-17, 11:53:22
*
L001
      24   2
   2.3203008E+06   5.0465291E+06
   2.3194411E+06   5.0453829E+06
   2.3182949E+06   5.0444516E+06
   2.3178651E+06   5.0463142E+06
   2.3163607E+06   5.0458127E+06
   2.3148563E+06   5.0448815E+06
   2.3132087E+06   5.0436636E+06
   2.3129221E+06   5.0429472E+06
   2.3148563E+06   5.0411563E+06
   2.3165040E+06   5.0403683E+06
   2.3176502E+06   5.0392937E+06
   2.3189397E+06   5.0382192E+06
   2.3190829E+06   5.0370730E+06
   2.3202291E+06   5.0361417E+06
   2.3230946E+06   5.0367148E+06
   2.3280376E+06   5.0388639E+06
   2.3311896E+06   5.0405116E+06
   2.3300434E+06   5.0471739E+06
   2.3267481E+06   5.0509706E+06
   2.3243125E+06   5.0507557E+06
   2.3214470E+06   5.0489648E+06
   2.3206590E+06   5.0466008E+06
   2.3206590E+06   5.0466008E+06
   2.3203008E+06   5.0465291E+06
