  Using options from ini file : delwaq.ini
 Delft3D-WAQ version  4.5204 16-03-2009
 Only to be used by SOBEK licensee                          
 (c) Deltares
 Execution start: 2013/12/04 16:13:14 
 total real    array space:       4154
 total integer array space:       2407
 total CHARACTER*20  space:        249
1                    Fraction calculation Sobek-WQ           
                                                             

                                                             
                     T0: 2012.01.01 00:00:00  (scu=       1s)

                     Initialisation from system file completed.
 partit: noseg,nolay=          13           1 , nseghr=          13
 partit: npart=  1, assigning all segments to part "npart", none to other parts
 
 CONSTANT ON UNIT:        22, READING: delwaq-dispersi.wrk                                                                                                                                                                                                                                            
 SIMULATION TIME :  0D  0H  0M  0S ! 
 TIME IN FILE    :  0D  0H  0M  0S ! 
 CONSTANT ON UNIT:        26, READING: ..\work\Length.dat                                                                                                                                                                                                                                             
 SIMULATION TIME :  0D  0H  0M  0S ! 
 TIME IN FILE    :  0D  0H  0M  0S ! 
  Closure error correction disabled
 
 Initialising numerical options for method 15...18
 
 Preconditioner switch not found, using default
 switch = 3, corrections based on lower and upper 
 
 Maximum number of iterations not found, using default
 Maximum number of iterations set to :   100
 
 Relative tolerance not found, using default
 Relative tolerance set to :0.100E-06
 
 Scaling switch not found, using default
 switch = 1, scaling is switched on
 
 Iteration report switch found in input
 switch = 0, iteration report is switched off
 
 
 Extra functionality DLWQTR
 End extra functionality DLWQTR
1
                                             Fraction calculation Sobek-WQ           
                                                                                     
                                                                                     
                                             T0: 2012.01.01 00:00:00  (scu=       1s)
   0.00% Completed


 DUMP OF INTERMEDIATE RESULTS IN SELECTED SEGMENTS
  TIME =   0D  0H  0M  0S .
 
 TOTAL MASS IN SYSTEM 9.4158E+03 9.4158E+03 0.0000E+00 0.0000E+00
 CHANGES BY PROCESSES 0.0000E+00 0.0000E+00 0.0000E+00 0.0000E+00
 CHANGES BY LOADS     0.0000E+00 0.0000E+00 0.0000E+00 0.0000E+00
 BOUNDARY INFLOWS     0.0000E+00 0.0000E+00 0.0000E+00 0.0000E+00
 BOUNDARY OUTFLOWS    0.0000E+00 0.0000E+00 0.0000E+00 0.0000E+00
                      Check      Initial    Lateral in Boundary F 
                                            flow       low        
 CONCENTRATION                           
 SWT_Normal           1.0000E+00 1.0000E+00 0.0000E+00 0.0000E+00
 
   1.04% Completed


 DUMP OF INTERMEDIATE RESULTS IN SELECTED SEGMENTS
  TIME =   0D  1H  0M  0S .
 
 TOTAL MASS IN SYSTEM 9.5966E+03 3.8130E+03 2.3521E+03 3.4315E+03
 CHANGES BY PROCESSES 0.0000E+00 0.0000E+00 0.0000E+00 0.0000E+00
 CHANGES BY LOADS     0.0000E+00 0.0000E+00 0.0000E+00 0.0000E+00
 BOUNDARY INFLOWS     6.8400E+03 0.0000E+00 3.2400E+03 3.6000E+03
 BOUNDARY OUTFLOWS    6.6591E+03 5.6027E+03 8.8792E+02 1.6847E+02
                      Check      Initial    Lateral in Boundary F 
                                            flow       low        
 CONCENTRATION                           
 SWT_Normal           1.0133E+00 4.0261E-01 2.4835E-01 3.6233E-01
 
   2.08% Completed


 DUMP OF INTERMEDIATE RESULTS IN SELECTED SEGMENTS
  TIME =   0D  2H  0M  0S .
 
 TOTAL MASS IN SYSTEM 9.7060E+03 9.3727E+02 3.2470E+03 5.5217E+03
 CHANGES BY PROCESSES 0.0000E+00 0.0000E+00 0.0000E+00 0.0000E+00
 CHANGES BY LOADS     0.0000E+00 0.0000E+00 0.0000E+00 0.0000E+00
 BOUNDARY INFLOWS     6.8400E+03 0.0000E+00 3.2400E+03 3.6000E+03
 BOUNDARY OUTFLOWS    6.7306E+03 2.8758E+03 2.3450E+03 1.5098E+03
                      Check      Initial    Lateral in Boundary F 
                                            flow       low        
 CONCENTRATION                           
 SWT_Normal           1.0248E+00 9.8965E-02 3.4285E-01 5.8303E-01
 
   3.12% Completed


 DUMP OF INTERMEDIATE RESULTS IN SELECTED SEGMENTS
  TIME =   0D  3H  0M  0S .
 
 TOTAL MASS IN SYSTEM 9.7429E+03 1.4964E+02 3.4426E+03 6.1506E+03
 CHANGES BY PROCESSES 0.0000E+00 0.0000E+00 0.0000E+00 0.0000E+00
 CHANGES BY LOADS     0.0000E+00 0.0000E+00 0.0000E+00 0.0000E+00
 BOUNDARY INFLOWS     6.8400E+03 0.0000E+00 3.2400E+03 3.6000E+03
 BOUNDARY OUTFLOWS    6.8032E+03 7.8763E+02 3.0444E+03 2.9711E+03
                      Check      Initial    Lateral in Boundary F 
                                            flow       low        
 CONCENTRATION                           
 SWT_Normal           1.0287E+00 1.5800E-02 3.6350E-01 6.4943E-01
 
1
                                             Fraction calculation Sobek-WQ           
                                                                                     
                                                                                     
                                             T0: 2012.01.01 00:00:00  (scu=       1s)
   4.17% Completed


 DUMP OF INTERMEDIATE RESULTS IN SELECTED SEGMENTS
  TIME =   0D  4H  0M  0S .
 
 TOTAL MASS IN SYSTEM 9.7498E+03 1.7600E+01 3.4712E+03 6.2610E+03
 CHANGES BY PROCESSES 0.0000E+00 0.0000E+00 0.0000E+00 0.0000E+00
 CHANGES BY LOADS     0.0000E+00 0.0000E+00 0.0000E+00 0.0000E+00
 BOUNDARY INFLOWS     6.8400E+03 0.0000E+00 3.2400E+03 3.6000E+03
 BOUNDARY OUTFLOWS    6.8331E+03 1.3204E+02 3.2115E+03 3.4896E+03
                      Check      Initial    Lateral in Boundary F 
                                            flow       low        
 CONCENTRATION                           
 SWT_Normal           1.0295E+00 1.8583E-03 3.6652E-01 6.6109E-01
 
   5.21% Completed


 DUMP OF INTERMEDIATE RESULTS IN SELECTED SEGMENTS
  TIME =   0D  5H  0M  0S .
 
 TOTAL MASS IN SYSTEM 9.7507E+03 1.6830E+00 3.4743E+03 6.2746E+03
 CHANGES BY PROCESSES 0.0000E+00 0.0000E+00 0.0000E+00 0.0000E+00
 CHANGES BY LOADS     0.0000E+00 0.0000E+00 0.0000E+00 0.0000E+00
 BOUNDARY INFLOWS     6.8400E+03 0.0000E+00 3.2400E+03 3.6000E+03
 BOUNDARY OUTFLOWS    6.8391E+03 1.5917E+01 3.2368E+03 3.5864E+03
                      Check      Initial    Lateral in Boundary F 
                                            flow       low        
 CONCENTRATION                           
 SWT_Normal           1.0296E+00 1.7771E-04 3.6685E-01 6.6253E-01
 
   6.25% Completed


 DUMP OF INTERMEDIATE RESULTS IN SELECTED SEGMENTS
  TIME =   0D  6H  0M  0S .
 
 TOTAL MASS IN SYSTEM 9.7507E+03 1.3984E-01 3.4746E+03 6.2760E+03
 CHANGES BY PROCESSES 0.0000E+00 0.0000E+00 0.0000E+00 0.0000E+00
 CHANGES BY LOADS     0.0000E+00 0.0000E+00 0.0000E+00 0.0000E+00
 BOUNDARY INFLOWS     6.8400E+03 0.0000E+00 3.2400E+03 3.6000E+03
 BOUNDARY OUTFLOWS    6.8399E+03 1.5432E+00 3.2397E+03 3.5987E+03
                      Check      Initial    Lateral in Boundary F 
                                            flow       low        
 CONCENTRATION                           
 SWT_Normal           1.0296E+00 1.4766E-05 3.6688E-01 6.6267E-01
 
   7.29% Completed


 DUMP OF INTERMEDIATE RESULTS IN SELECTED SEGMENTS
  TIME =   0D  7H  0M  0S .
 
 TOTAL MASS IN SYSTEM 9.7507E+03 1.0550E-02 3.4747E+03 6.2761E+03
 CHANGES BY PROCESSES 0.0000E+00 0.0000E+00 0.0000E+00 0.0000E+00
 CHANGES BY LOADS     0.0000E+00 0.0000E+00 0.0000E+00 0.0000E+00
 BOUNDARY INFLOWS     6.8400E+03 0.0000E+00 3.2400E+03 3.6000E+03
 BOUNDARY OUTFLOWS    6.8400E+03 1.2930E-01 3.2400E+03 3.5999E+03
                      Check      Initial    Lateral in Boundary F 
                                            flow       low        
 CONCENTRATION                           
 SWT_Normal           1.0296E+00 1.1140E-06 3.6688E-01 6.6268E-01
 
1
                                             Fraction calculation Sobek-WQ           
                                                                                     
                                                                                     
                                             T0: 2012.01.01 00:00:00  (scu=       1s)
   8.33% Completed


 DUMP OF INTERMEDIATE RESULTS IN SELECTED SEGMENTS
  TIME =   0D  8H  0M  0S .
 
 TOTAL MASS IN SYSTEM 9.7507E+03 7.3924E-04 3.4747E+03 6.2761E+03
 CHANGES BY PROCESSES 0.0000E+00 0.0000E+00 0.0000E+00 0.0000E+00
 CHANGES BY LOADS     0.0000E+00 0.0000E+00 0.0000E+00 0.0000E+00
 BOUNDARY INFLOWS     6.8400E+03 0.0000E+00 3.2400E+03 3.6000E+03
 BOUNDARY OUTFLOWS    6.8400E+03 9.8034E-03 3.2400E+03 3.6000E+03
                      Check      Initial    Lateral in Boundary F 
                                            flow       low        
 CONCENTRATION                           
 SWT_Normal           1.0296E+00 7.8055E-08 3.6688E-01 6.6268E-01
 
   9.38% Completed


 DUMP OF INTERMEDIATE RESULTS IN SELECTED SEGMENTS
  TIME =   0D  9H  0M  0S .
 
 TOTAL MASS IN SYSTEM 9.7507E+03 5.4547E-05 3.4747E+03 6.2761E+03
 CHANGES BY PROCESSES 0.0000E+00 0.0000E+00 0.0000E+00 0.0000E+00
 CHANGES BY LOADS     0.0000E+00 0.0000E+00 0.0000E+00 0.0000E+00
 BOUNDARY INFLOWS     6.8400E+03 0.0000E+00 3.2400E+03 3.6000E+03
 BOUNDARY OUTFLOWS    6.8400E+03 6.9454E-04 3.2400E+03 3.6000E+03
                      Check      Initial    Lateral in Boundary F 
                                            flow       low        
 CONCENTRATION                           
 SWT_Normal           1.0296E+00 5.7595E-09 3.6688E-01 6.6268E-01
 
  10.42% Completed


 DUMP OF INTERMEDIATE RESULTS IN SELECTED SEGMENTS
  TIME =   0D 10H  0M  0S .
 
 TOTAL MASS IN SYSTEM 9.7507E+03 4.8453E-06 3.4747E+03 6.2761E+03
 CHANGES BY PROCESSES 0.0000E+00 0.0000E+00 0.0000E+00 0.0000E+00
 CHANGES BY LOADS     0.0000E+00 0.0000E+00 0.0000E+00 0.0000E+00
 BOUNDARY INFLOWS     6.8400E+03 0.0000E+00 3.2400E+03 3.6000E+03
 BOUNDARY OUTFLOWS    6.8400E+03 4.9701E-05 3.2400E+03 3.6000E+03
                      Check      Initial    Lateral in Boundary F 
                                            flow       low        
 CONCENTRATION                           
 SWT_Normal           1.0296E+00 5.1160E-10 3.6688E-01 6.6268E-01
 
  11.46% Completed


 DUMP OF INTERMEDIATE RESULTS IN SELECTED SEGMENTS
  TIME =   0D 11H  0M  0S .
 
 TOTAL MASS IN SYSTEM 9.7507E+03 4.8481E-07 3.4747E+03 6.2761E+03
 CHANGES BY PROCESSES 0.0000E+00 0.0000E+00 0.0000E+00 0.0000E+00
 CHANGES BY LOADS     0.0000E+00 0.0000E+00 0.0000E+00 0.0000E+00
 BOUNDARY INFLOWS     6.8400E+03 0.0000E+00 3.2400E+03 3.6000E+03
 BOUNDARY OUTFLOWS    6.8400E+03 4.3605E-06 3.2400E+03 3.6000E+03
                      Check      Initial    Lateral in Boundary F 
                                            flow       low        
 CONCENTRATION                           
 SWT_Normal           1.0296E+00 5.1190E-11 3.6688E-01 6.6268E-01
 
1
                                             Fraction calculation Sobek-WQ           
                                                                                     
                                                                                     
                                             T0: 2012.01.01 00:00:00  (scu=       1s)
  12.50% Completed


 DUMP OF INTERMEDIATE RESULTS IN SELECTED SEGMENTS
  TIME =   0D 12H  0M  0S .
 
 TOTAL MASS IN SYSTEM 9.7507E+03 4.6186E-08 3.4747E+03 6.2761E+03
 CHANGES BY PROCESSES 0.0000E+00 0.0000E+00 0.0000E+00 0.0000E+00
 CHANGES BY LOADS     0.0000E+00 0.0000E+00 0.0000E+00 0.0000E+00
 BOUNDARY INFLOWS     6.8400E+03 0.0000E+00 3.2400E+03 3.6000E+03
 BOUNDARY OUTFLOWS    6.8400E+03 4.3862E-07 3.2400E+03 3.6000E+03
                      Check      Initial    Lateral in Boundary F 
                                            flow       low        
 CONCENTRATION                           
 SWT_Normal           1.0296E+00 4.8767E-12 3.6688E-01 6.6268E-01
 
  13.54% Completed


 DUMP OF INTERMEDIATE RESULTS IN SELECTED SEGMENTS
  TIME =   0D 13H  0M  0S .
 
 TOTAL MASS IN SYSTEM 9.7507E+03 3.9665E-09 3.4747E+03 6.2761E+03
 CHANGES BY PROCESSES 0.0000E+00 0.0000E+00 0.0000E+00 0.0000E+00
 CHANGES BY LOADS     0.0000E+00 0.0000E+00 0.0000E+00 0.0000E+00
 BOUNDARY INFLOWS     6.8400E+03 0.0000E+00 3.2400E+03 3.6000E+03
 BOUNDARY OUTFLOWS    6.8400E+03 4.2219E-08 3.2400E+03 3.6000E+03
                      Check      Initial    Lateral in Boundary F 
                                            flow       low        
 CONCENTRATION                           
 SWT_Normal           1.0296E+00 4.1882E-13 3.6688E-01 6.6268E-01
 
  14.58% Completed


 DUMP OF INTERMEDIATE RESULTS IN SELECTED SEGMENTS
  TIME =   0D 14H  0M  0S .
 
 TOTAL MASS IN SYSTEM 9.7507E+03 3.0975E-10 3.4747E+03 6.2761E+03
 CHANGES BY PROCESSES 0.0000E+00 0.0000E+00 0.0000E+00 0.0000E+00
 CHANGES BY LOADS     0.0000E+00 0.0000E+00 0.0000E+00 0.0000E+00
 BOUNDARY INFLOWS     6.8400E+03 0.0000E+00 3.2400E+03 3.6000E+03
 BOUNDARY OUTFLOWS    6.8400E+03 3.6568E-09 3.2400E+03 3.6000E+03
                      Check      Initial    Lateral in Boundary F 
                                            flow       low        
 CONCENTRATION                           
 SWT_Normal           1.0296E+00 3.2706E-14 3.6688E-01 6.6268E-01
 
  15.62% Completed


 DUMP OF INTERMEDIATE RESULTS IN SELECTED SEGMENTS
  TIME =   0D 15H  0M  0S .
 
 TOTAL MASS IN SYSTEM 9.7507E+03 2.2468E-11 3.4747E+03 6.2761E+03
 CHANGES BY PROCESSES 0.0000E+00 0.0000E+00 0.0000E+00 0.0000E+00
 CHANGES BY LOADS     0.0000E+00 0.0000E+00 0.0000E+00 0.0000E+00
 BOUNDARY INFLOWS     6.8400E+03 0.0000E+00 3.2400E+03 3.6000E+03
 BOUNDARY OUTFLOWS    6.8400E+03 2.8728E-10 3.2400E+03 3.6000E+03
                      Check      Initial    Lateral in Boundary F 
                                            flow       low        
 CONCENTRATION                           
 SWT_Normal           1.0296E+00 2.3723E-15 3.6688E-01 6.6268E-01
 
1
                                             Fraction calculation Sobek-WQ           
                                                                                     
                                                                                     
                                             T0: 2012.01.01 00:00:00  (scu=       1s)
  16.67% Completed


 DUMP OF INTERMEDIATE RESULTS IN SELECTED SEGMENTS
  TIME =   0D 16H  0M  0S .
 
 TOTAL MASS IN SYSTEM 9.7507E+03 1.5428E-12 3.4747E+03 6.2761E+03
 CHANGES BY PROCESSES 0.0000E+00 0.0000E+00 0.0000E+00 0.0000E+00
 CHANGES BY LOADS     0.0000E+00 0.0000E+00 0.0000E+00 0.0000E+00
 BOUNDARY INFLOWS     6.8400E+03 0.0000E+00 3.2400E+03 3.6000E+03
 BOUNDARY OUTFLOWS    6.8400E+03 2.0925E-11 3.2400E+03 3.6000E+03
                      Check      Initial    Lateral in Boundary F 
                                            flow       low        
 CONCENTRATION                           
 SWT_Normal           1.0296E+00 1.6290E-16 3.6688E-01 6.6268E-01
 
  17.71% Completed


 DUMP OF INTERMEDIATE RESULTS IN SELECTED SEGMENTS
  TIME =   0D 17H  0M  0S .
 
 TOTAL MASS IN SYSTEM 9.7507E+03 1.0174E-13 3.4747E+03 6.2761E+03
 CHANGES BY PROCESSES 0.0000E+00 0.0000E+00 0.0000E+00 0.0000E+00
 CHANGES BY LOADS     0.0000E+00 0.0000E+00 0.0000E+00 0.0000E+00
 BOUNDARY INFLOWS     6.8400E+03 0.0000E+00 3.2400E+03 3.6000E+03
 BOUNDARY OUTFLOWS    6.8400E+03 1.4410E-12 3.2400E+03 3.6000E+03
                      Check      Initial    Lateral in Boundary F 
                                            flow       low        
 CONCENTRATION                           
 SWT_Normal           1.0296E+00 1.0742E-17 3.6688E-01 6.6268E-01
 
  18.75% Completed


 DUMP OF INTERMEDIATE RESULTS IN SELECTED SEGMENTS
  TIME =   0D 18H  0M  0S .
 
 TOTAL MASS IN SYSTEM 9.7507E+03 6.5107E-15 3.4747E+03 6.2761E+03
 CHANGES BY PROCESSES 0.0000E+00 0.0000E+00 0.0000E+00 0.0000E+00
 CHANGES BY LOADS     0.0000E+00 0.0000E+00 0.0000E+00 0.0000E+00
 BOUNDARY INFLOWS     6.8400E+03 0.0000E+00 3.2400E+03 3.6000E+03
 BOUNDARY OUTFLOWS    6.8400E+03 9.5228E-14 3.2400E+03 3.6000E+03
                      Check      Initial    Lateral in Boundary F 
                                            flow       low        
 CONCENTRATION                           
 SWT_Normal           1.0296E+00 6.8745E-19 3.6688E-01 6.6268E-01
 
  19.79% Completed


 DUMP OF INTERMEDIATE RESULTS IN SELECTED SEGMENTS
  TIME =   0D 19H  0M  0S .
 
 TOTAL MASS IN SYSTEM 9.7507E+03 4.0730E-16 3.4747E+03 6.2761E+03
 CHANGES BY PROCESSES 0.0000E+00 0.0000E+00 0.0000E+00 0.0000E+00
 CHANGES BY LOADS     0.0000E+00 0.0000E+00 0.0000E+00 0.0000E+00
 BOUNDARY INFLOWS     6.8400E+03 0.0000E+00 3.2400E+03 3.6000E+03
 BOUNDARY OUTFLOWS    6.8400E+03 6.1034E-15 3.2400E+03 3.6000E+03
                      Check      Initial    Lateral in Boundary F 
                                            flow       low        
 CONCENTRATION                           
 SWT_Normal           1.0296E+00 4.3006E-20 3.6688E-01 6.6268E-01
 
1
                                             Fraction calculation Sobek-WQ           
                                                                                     
                                                                                     
                                             T0: 2012.01.01 00:00:00  (scu=       1s)
  20.83% Completed


 DUMP OF INTERMEDIATE RESULTS IN SELECTED SEGMENTS
  TIME =   0D 20H  0M  0S .
 
 TOTAL MASS IN SYSTEM 9.7507E+03 2.5040E-17 3.4747E+03 6.2761E+03
 CHANGES BY PROCESSES 0.0000E+00 0.0000E+00 0.0000E+00 0.0000E+00
 CHANGES BY LOADS     0.0000E+00 0.0000E+00 0.0000E+00 0.0000E+00
 BOUNDARY INFLOWS     6.8400E+03 0.0000E+00 3.2400E+03 3.6000E+03
 BOUNDARY OUTFLOWS    6.8400E+03 3.8226E-16 3.2400E+03 3.6000E+03
                      Check      Initial    Lateral in Boundary F 
                                            flow       low        
 CONCENTRATION                           
 SWT_Normal           1.0296E+00 2.6439E-21 3.6688E-01 6.6268E-01
 
  21.88% Completed


 DUMP OF INTERMEDIATE RESULTS IN SELECTED SEGMENTS
  TIME =   0D 21H  0M  0S .
 
 TOTAL MASS IN SYSTEM 9.7507E+03 1.5186E-18 3.4747E+03 6.2761E+03
 CHANGES BY PROCESSES 0.0000E+00 0.0000E+00 0.0000E+00 0.0000E+00
 CHANGES BY LOADS     0.0000E+00 0.0000E+00 0.0000E+00 0.0000E+00
 BOUNDARY INFLOWS     6.8400E+03 0.0000E+00 3.2400E+03 3.6000E+03
 BOUNDARY OUTFLOWS    6.8400E+03 2.3521E-17 3.2400E+03 3.6000E+03
                      Check      Initial    Lateral in Boundary F 
                                            flow       low        
 CONCENTRATION                           
 SWT_Normal           1.0296E+00 1.6034E-22 3.6688E-01 6.6268E-01
 
  22.92% Completed


 DUMP OF INTERMEDIATE RESULTS IN SELECTED SEGMENTS
  TIME =   0D 22H  0M  0S .
 
 TOTAL MASS IN SYSTEM 9.7507E+03 9.1098E-20 3.4747E+03 6.2761E+03
 CHANGES BY PROCESSES 0.0000E+00 0.0000E+00 0.0000E+00 0.0000E+00
 CHANGES BY LOADS     0.0000E+00 0.0000E+00 0.0000E+00 0.0000E+00
 BOUNDARY INFLOWS     6.8400E+03 0.0000E+00 3.2400E+03 3.6000E+03
 BOUNDARY OUTFLOWS    6.8400E+03 1.4275E-18 3.2400E+03 3.6000E+03
                      Check      Initial    Lateral in Boundary F 
                                            flow       low        
 CONCENTRATION                           
 SWT_Normal           1.0296E+00 9.6189E-24 3.6688E-01 6.6268E-01
 
  23.96% Completed


 DUMP OF INTERMEDIATE RESULTS IN SELECTED SEGMENTS
  TIME =   0D 23H  0M  0S .
 
 TOTAL MASS IN SYSTEM 9.7507E+03 5.4172E-21 3.4747E+03 6.2761E+03
 CHANGES BY PROCESSES 0.0000E+00 0.0000E+00 0.0000E+00 0.0000E+00
 CHANGES BY LOADS     0.0000E+00 0.0000E+00 0.0000E+00 0.0000E+00
 BOUNDARY INFLOWS     6.8400E+03 0.0000E+00 3.2400E+03 3.6000E+03
 BOUNDARY OUTFLOWS    6.8400E+03 8.5681E-20 3.2400E+03 3.6000E+03
                      Check      Initial    Lateral in Boundary F 
                                            flow       low        
 CONCENTRATION                           
 SWT_Normal           1.0296E+00 5.7199E-25 3.6688E-01 6.6268E-01
 
1
                                             Fraction calculation Sobek-WQ           
                                                                                     
                                                                                     
                                             T0: 2012.01.01 00:00:00  (scu=       1s)
  25.00% Completed


 DUMP OF INTERMEDIATE RESULTS IN SELECTED SEGMENTS
  TIME =   1D  0H  0M  0S .
 
 TOTAL MASS IN SYSTEM 9.7507E+03 3.1981E-22 3.4747E+03 6.2761E+03
 CHANGES BY PROCESSES 0.0000E+00 0.0000E+00 0.0000E+00 0.0000E+00
 CHANGES BY LOADS     0.0000E+00 0.0000E+00 0.0000E+00 0.0000E+00
 BOUNDARY INFLOWS     6.8400E+03 0.0000E+00 3.2400E+03 3.6000E+03
 BOUNDARY OUTFLOWS    6.8400E+03 5.0974E-21 3.2400E+03 3.6000E+03
                      Check      Initial    Lateral in Boundary F 
                                            flow       low        
 CONCENTRATION                           
 SWT_Normal           1.0296E+00 3.3768E-26 3.6688E-01 6.6268E-01
 
  26.04% Completed


 DUMP OF INTERMEDIATE RESULTS IN SELECTED SEGMENTS
  TIME =   1D  1H  0M  0S .
 
 TOTAL MASS IN SYSTEM 9.7507E+03 0.0000E+00 3.4747E+03 6.2761E+03
 CHANGES BY PROCESSES 0.0000E+00 0.0000E+00 0.0000E+00 0.0000E+00
 CHANGES BY LOADS     0.0000E+00 0.0000E+00 0.0000E+00 0.0000E+00
 BOUNDARY INFLOWS     6.8400E+03 0.0000E+00 3.2400E+03 3.6000E+03
 BOUNDARY OUTFLOWS    6.8400E+03 1.2037E-22 3.2400E+03 3.6000E+03
                      Check      Initial    Lateral in Boundary F 
                                            flow       low        
 CONCENTRATION                           
 SWT_Normal           1.0296E+00 0.0000E+00 3.6688E-01 6.6268E-01
 
  27.08% Completed


 DUMP OF INTERMEDIATE RESULTS IN SELECTED SEGMENTS
  TIME =   1D  2H  0M  0S .
 
 TOTAL MASS IN SYSTEM 9.7507E+03 0.0000E+00 3.4747E+03 6.2761E+03
 CHANGES BY PROCESSES 0.0000E+00 0.0000E+00 0.0000E+00 0.0000E+00
 CHANGES BY LOADS     0.0000E+00 0.0000E+00 0.0000E+00 0.0000E+00
 BOUNDARY INFLOWS     6.8400E+03 0.0000E+00 3.2400E+03 3.6000E+03
 BOUNDARY OUTFLOWS    6.8400E+03 0.0000E+00 3.2400E+03 3.6000E+03
                      Check      Initial    Lateral in Boundary F 
                                            flow       low        
 CONCENTRATION                           
 SWT_Normal           1.0296E+00 0.0000E+00 3.6688E-01 6.6268E-01
 
  28.12% Completed


 DUMP OF INTERMEDIATE RESULTS IN SELECTED SEGMENTS
  TIME =   1D  3H  0M  0S .
 
 TOTAL MASS IN SYSTEM 9.7507E+03 0.0000E+00 3.4747E+03 6.2761E+03
 CHANGES BY PROCESSES 0.0000E+00 0.0000E+00 0.0000E+00 0.0000E+00
 CHANGES BY LOADS     0.0000E+00 0.0000E+00 0.0000E+00 0.0000E+00
 BOUNDARY INFLOWS     6.8400E+03 0.0000E+00 3.2400E+03 3.6000E+03
 BOUNDARY OUTFLOWS    6.8400E+03 0.0000E+00 3.2400E+03 3.6000E+03
                      Check      Initial    Lateral in Boundary F 
                                            flow       low        
 CONCENTRATION                           
 SWT_Normal           1.0296E+00 0.0000E+00 3.6688E-01 6.6268E-01
 
1
                                             Fraction calculation Sobek-WQ           
                                                                                     
                                                                                     
                                             T0: 2012.01.01 00:00:00  (scu=       1s)
  29.17% Completed


 DUMP OF INTERMEDIATE RESULTS IN SELECTED SEGMENTS
  TIME =   1D  4H  0M  0S .
 
 TOTAL MASS IN SYSTEM 9.7507E+03 0.0000E+00 3.4747E+03 6.2761E+03
 CHANGES BY PROCESSES 0.0000E+00 0.0000E+00 0.0000E+00 0.0000E+00
 CHANGES BY LOADS     0.0000E+00 0.0000E+00 0.0000E+00 0.0000E+00
 BOUNDARY INFLOWS     6.8400E+03 0.0000E+00 3.2400E+03 3.6000E+03
 BOUNDARY OUTFLOWS    6.8400E+03 0.0000E+00 3.2400E+03 3.6000E+03
                      Check      Initial    Lateral in Boundary F 
                                            flow       low        
 CONCENTRATION                           
 SWT_Normal           1.0296E+00 0.0000E+00 3.6688E-01 6.6268E-01
 
  30.21% Completed


 DUMP OF INTERMEDIATE RESULTS IN SELECTED SEGMENTS
  TIME =   1D  5H  0M  0S .
 
 TOTAL MASS IN SYSTEM 9.7507E+03 0.0000E+00 3.4747E+03 6.2761E+03
 CHANGES BY PROCESSES 0.0000E+00 0.0000E+00 0.0000E+00 0.0000E+00
 CHANGES BY LOADS     0.0000E+00 0.0000E+00 0.0000E+00 0.0000E+00
 BOUNDARY INFLOWS     6.8400E+03 0.0000E+00 3.2400E+03 3.6000E+03
 BOUNDARY OUTFLOWS    6.8400E+03 0.0000E+00 3.2400E+03 3.6000E+03
                      Check      Initial    Lateral in Boundary F 
                                            flow       low        
 CONCENTRATION                           
 SWT_Normal           1.0296E+00 0.0000E+00 3.6688E-01 6.6268E-01
 
  31.25% Completed


 DUMP OF INTERMEDIATE RESULTS IN SELECTED SEGMENTS
  TIME =   1D  6H  0M  0S .
 
 TOTAL MASS IN SYSTEM 9.7507E+03 0.0000E+00 3.4747E+03 6.2761E+03
 CHANGES BY PROCESSES 0.0000E+00 0.0000E+00 0.0000E+00 0.0000E+00
 CHANGES BY LOADS     0.0000E+00 0.0000E+00 0.0000E+00 0.0000E+00
 BOUNDARY INFLOWS     6.8400E+03 0.0000E+00 3.2400E+03 3.6000E+03
 BOUNDARY OUTFLOWS    6.8400E+03 0.0000E+00 3.2400E+03 3.6000E+03
                      Check      Initial    Lateral in Boundary F 
                                            flow       low        
 CONCENTRATION                           
 SWT_Normal           1.0296E+00 0.0000E+00 3.6688E-01 6.6268E-01
 
  32.29% Completed


 DUMP OF INTERMEDIATE RESULTS IN SELECTED SEGMENTS
  TIME =   1D  7H  0M  0S .
 
 TOTAL MASS IN SYSTEM 9.7507E+03 0.0000E+00 3.4747E+03 6.2761E+03
 CHANGES BY PROCESSES 0.0000E+00 0.0000E+00 0.0000E+00 0.0000E+00
 CHANGES BY LOADS     0.0000E+00 0.0000E+00 0.0000E+00 0.0000E+00
 BOUNDARY INFLOWS     6.8400E+03 0.0000E+00 3.2400E+03 3.6000E+03
 BOUNDARY OUTFLOWS    6.8400E+03 0.0000E+00 3.2400E+03 3.6000E+03
                      Check      Initial    Lateral in Boundary F 
                                            flow       low        
 CONCENTRATION                           
 SWT_Normal           1.0296E+00 0.0000E+00 3.6688E-01 6.6268E-01
 
1
                                             Fraction calculation Sobek-WQ           
                                                                                     
                                                                                     
                                             T0: 2012.01.01 00:00:00  (scu=       1s)
  33.33% Completed


 DUMP OF INTERMEDIATE RESULTS IN SELECTED SEGMENTS
  TIME =   1D  8H  0M  0S .
 
 TOTAL MASS IN SYSTEM 9.7507E+03 0.0000E+00 3.4747E+03 6.2761E+03
 CHANGES BY PROCESSES 0.0000E+00 0.0000E+00 0.0000E+00 0.0000E+00
 CHANGES BY LOADS     0.0000E+00 0.0000E+00 0.0000E+00 0.0000E+00
 BOUNDARY INFLOWS     6.8400E+03 0.0000E+00 3.2400E+03 3.6000E+03
 BOUNDARY OUTFLOWS    6.8400E+03 0.0000E+00 3.2400E+03 3.6000E+03
                      Check      Initial    Lateral in Boundary F 
                                            flow       low        
 CONCENTRATION                           
 SWT_Normal           1.0296E+00 0.0000E+00 3.6688E-01 6.6268E-01
 
  34.38% Completed


 DUMP OF INTERMEDIATE RESULTS IN SELECTED SEGMENTS
  TIME =   1D  9H  0M  0S .
 
 TOTAL MASS IN SYSTEM 9.7507E+03 0.0000E+00 3.4747E+03 6.2761E+03
 CHANGES BY PROCESSES 0.0000E+00 0.0000E+00 0.0000E+00 0.0000E+00
 CHANGES BY LOADS     0.0000E+00 0.0000E+00 0.0000E+00 0.0000E+00
 BOUNDARY INFLOWS     6.8400E+03 0.0000E+00 3.2400E+03 3.6000E+03
 BOUNDARY OUTFLOWS    6.8400E+03 0.0000E+00 3.2400E+03 3.6000E+03
                      Check      Initial    Lateral in Boundary F 
                                            flow       low        
 CONCENTRATION                           
 SWT_Normal           1.0296E+00 0.0000E+00 3.6688E-01 6.6268E-01
 
  35.42% Completed


 DUMP OF INTERMEDIATE RESULTS IN SELECTED SEGMENTS
  TIME =   1D 10H  0M  0S .
 
 TOTAL MASS IN SYSTEM 9.7507E+03 0.0000E+00 3.4747E+03 6.2761E+03
 CHANGES BY PROCESSES 0.0000E+00 0.0000E+00 0.0000E+00 0.0000E+00
 CHANGES BY LOADS     0.0000E+00 0.0000E+00 0.0000E+00 0.0000E+00
 BOUNDARY INFLOWS     6.8400E+03 0.0000E+00 3.2400E+03 3.6000E+03
 BOUNDARY OUTFLOWS    6.8400E+03 0.0000E+00 3.2400E+03 3.6000E+03
                      Check      Initial    Lateral in Boundary F 
                                            flow       low        
 CONCENTRATION                           
 SWT_Normal           1.0296E+00 0.0000E+00 3.6688E-01 6.6268E-01
 
  36.46% Completed


 DUMP OF INTERMEDIATE RESULTS IN SELECTED SEGMENTS
  TIME =   1D 11H  0M  0S .
 
 TOTAL MASS IN SYSTEM 9.7507E+03 0.0000E+00 3.4747E+03 6.2761E+03
 CHANGES BY PROCESSES 0.0000E+00 0.0000E+00 0.0000E+00 0.0000E+00
 CHANGES BY LOADS     0.0000E+00 0.0000E+00 0.0000E+00 0.0000E+00
 BOUNDARY INFLOWS     6.8400E+03 0.0000E+00 3.2400E+03 3.6000E+03
 BOUNDARY OUTFLOWS    6.8400E+03 0.0000E+00 3.2400E+03 3.6000E+03
                      Check      Initial    Lateral in Boundary F 
                                            flow       low        
 CONCENTRATION                           
 SWT_Normal           1.0296E+00 0.0000E+00 3.6688E-01 6.6268E-01
 
1
                                             Fraction calculation Sobek-WQ           
                                                                                     
                                                                                     
                                             T0: 2012.01.01 00:00:00  (scu=       1s)
  37.50% Completed


 DUMP OF INTERMEDIATE RESULTS IN SELECTED SEGMENTS
  TIME =   1D 12H  0M  0S .
 
 TOTAL MASS IN SYSTEM 9.7507E+03 0.0000E+00 3.4747E+03 6.2761E+03
 CHANGES BY PROCESSES 0.0000E+00 0.0000E+00 0.0000E+00 0.0000E+00
 CHANGES BY LOADS     0.0000E+00 0.0000E+00 0.0000E+00 0.0000E+00
 BOUNDARY INFLOWS     6.8400E+03 0.0000E+00 3.2400E+03 3.6000E+03
 BOUNDARY OUTFLOWS    6.8400E+03 0.0000E+00 3.2400E+03 3.6000E+03
                      Check      Initial    Lateral in Boundary F 
                                            flow       low        
 CONCENTRATION                           
 SWT_Normal           1.0296E+00 0.0000E+00 3.6688E-01 6.6268E-01
 
  38.54% Completed


 DUMP OF INTERMEDIATE RESULTS IN SELECTED SEGMENTS
  TIME =   1D 13H  0M  0S .
 
 TOTAL MASS IN SYSTEM 9.7507E+03 0.0000E+00 3.4747E+03 6.2761E+03
 CHANGES BY PROCESSES 0.0000E+00 0.0000E+00 0.0000E+00 0.0000E+00
 CHANGES BY LOADS     0.0000E+00 0.0000E+00 0.0000E+00 0.0000E+00
 BOUNDARY INFLOWS     6.8400E+03 0.0000E+00 3.2400E+03 3.6000E+03
 BOUNDARY OUTFLOWS    6.8400E+03 0.0000E+00 3.2400E+03 3.6000E+03
                      Check      Initial    Lateral in Boundary F 
                                            flow       low        
 CONCENTRATION                           
 SWT_Normal           1.0296E+00 0.0000E+00 3.6688E-01 6.6268E-01
 
  39.58% Completed


 DUMP OF INTERMEDIATE RESULTS IN SELECTED SEGMENTS
  TIME =   1D 14H  0M  0S .
 
 TOTAL MASS IN SYSTEM 9.7507E+03 0.0000E+00 3.4747E+03 6.2761E+03
 CHANGES BY PROCESSES 0.0000E+00 0.0000E+00 0.0000E+00 0.0000E+00
 CHANGES BY LOADS     0.0000E+00 0.0000E+00 0.0000E+00 0.0000E+00
 BOUNDARY INFLOWS     6.8400E+03 0.0000E+00 3.2400E+03 3.6000E+03
 BOUNDARY OUTFLOWS    6.8400E+03 0.0000E+00 3.2400E+03 3.6000E+03
                      Check      Initial    Lateral in Boundary F 
                                            flow       low        
 CONCENTRATION                           
 SWT_Normal           1.0296E+00 0.0000E+00 3.6688E-01 6.6268E-01
 
  40.62% Completed


 DUMP OF INTERMEDIATE RESULTS IN SELECTED SEGMENTS
  TIME =   1D 15H  0M  0S .
 
 TOTAL MASS IN SYSTEM 9.7507E+03 0.0000E+00 3.4747E+03 6.2761E+03
 CHANGES BY PROCESSES 0.0000E+00 0.0000E+00 0.0000E+00 0.0000E+00
 CHANGES BY LOADS     0.0000E+00 0.0000E+00 0.0000E+00 0.0000E+00
 BOUNDARY INFLOWS     6.8400E+03 0.0000E+00 3.2400E+03 3.6000E+03
 BOUNDARY OUTFLOWS    6.8400E+03 0.0000E+00 3.2400E+03 3.6000E+03
                      Check      Initial    Lateral in Boundary F 
                                            flow       low        
 CONCENTRATION                           
 SWT_Normal           1.0296E+00 0.0000E+00 3.6688E-01 6.6268E-01
 
1
                                             Fraction calculation Sobek-WQ           
                                                                                     
                                                                                     
                                             T0: 2012.01.01 00:00:00  (scu=       1s)
  41.67% Completed


 DUMP OF INTERMEDIATE RESULTS IN SELECTED SEGMENTS
  TIME =   1D 16H  0M  0S .
 
 TOTAL MASS IN SYSTEM 9.7507E+03 0.0000E+00 3.4747E+03 6.2761E+03
 CHANGES BY PROCESSES 0.0000E+00 0.0000E+00 0.0000E+00 0.0000E+00
 CHANGES BY LOADS     0.0000E+00 0.0000E+00 0.0000E+00 0.0000E+00
 BOUNDARY INFLOWS     6.8400E+03 0.0000E+00 3.2400E+03 3.6000E+03
 BOUNDARY OUTFLOWS    6.8400E+03 0.0000E+00 3.2400E+03 3.6000E+03
                      Check      Initial    Lateral in Boundary F 
                                            flow       low        
 CONCENTRATION                           
 SWT_Normal           1.0296E+00 0.0000E+00 3.6688E-01 6.6268E-01
 
  42.71% Completed


 DUMP OF INTERMEDIATE RESULTS IN SELECTED SEGMENTS
  TIME =   1D 17H  0M  0S .
 
 TOTAL MASS IN SYSTEM 9.7507E+03 0.0000E+00 3.4747E+03 6.2761E+03
 CHANGES BY PROCESSES 0.0000E+00 0.0000E+00 0.0000E+00 0.0000E+00
 CHANGES BY LOADS     0.0000E+00 0.0000E+00 0.0000E+00 0.0000E+00
 BOUNDARY INFLOWS     6.8400E+03 0.0000E+00 3.2400E+03 3.6000E+03
 BOUNDARY OUTFLOWS    6.8400E+03 0.0000E+00 3.2400E+03 3.6000E+03
                      Check      Initial    Lateral in Boundary F 
                                            flow       low        
 CONCENTRATION                           
 SWT_Normal           1.0296E+00 0.0000E+00 3.6688E-01 6.6268E-01
 
  43.75% Completed


 DUMP OF INTERMEDIATE RESULTS IN SELECTED SEGMENTS
  TIME =   1D 18H  0M  0S .
 
 TOTAL MASS IN SYSTEM 9.7507E+03 0.0000E+00 3.4747E+03 6.2761E+03
 CHANGES BY PROCESSES 0.0000E+00 0.0000E+00 0.0000E+00 0.0000E+00
 CHANGES BY LOADS     0.0000E+00 0.0000E+00 0.0000E+00 0.0000E+00
 BOUNDARY INFLOWS     6.8400E+03 0.0000E+00 3.2400E+03 3.6000E+03
 BOUNDARY OUTFLOWS    6.8400E+03 0.0000E+00 3.2400E+03 3.6000E+03
                      Check      Initial    Lateral in Boundary F 
                                            flow       low        
 CONCENTRATION                           
 SWT_Normal           1.0296E+00 0.0000E+00 3.6688E-01 6.6268E-01
 
  44.79% Completed


 DUMP OF INTERMEDIATE RESULTS IN SELECTED SEGMENTS
  TIME =   1D 19H  0M  0S .
 
 TOTAL MASS IN SYSTEM 9.7507E+03 0.0000E+00 3.4747E+03 6.2761E+03
 CHANGES BY PROCESSES 0.0000E+00 0.0000E+00 0.0000E+00 0.0000E+00
 CHANGES BY LOADS     0.0000E+00 0.0000E+00 0.0000E+00 0.0000E+00
 BOUNDARY INFLOWS     6.8400E+03 0.0000E+00 3.2400E+03 3.6000E+03
 BOUNDARY OUTFLOWS    6.8400E+03 0.0000E+00 3.2400E+03 3.6000E+03
                      Check      Initial    Lateral in Boundary F 
                                            flow       low        
 CONCENTRATION                           
 SWT_Normal           1.0296E+00 0.0000E+00 3.6688E-01 6.6268E-01
 
1
                                             Fraction calculation Sobek-WQ           
                                                                                     
                                                                                     
                                             T0: 2012.01.01 00:00:00  (scu=       1s)
  45.83% Completed


 DUMP OF INTERMEDIATE RESULTS IN SELECTED SEGMENTS
  TIME =   1D 20H  0M  0S .
 
 TOTAL MASS IN SYSTEM 9.7507E+03 0.0000E+00 3.4747E+03 6.2761E+03
 CHANGES BY PROCESSES 0.0000E+00 0.0000E+00 0.0000E+00 0.0000E+00
 CHANGES BY LOADS     0.0000E+00 0.0000E+00 0.0000E+00 0.0000E+00
 BOUNDARY INFLOWS     6.8400E+03 0.0000E+00 3.2400E+03 3.6000E+03
 BOUNDARY OUTFLOWS    6.8400E+03 0.0000E+00 3.2400E+03 3.6000E+03
                      Check      Initial    Lateral in Boundary F 
                                            flow       low        
 CONCENTRATION                           
 SWT_Normal           1.0296E+00 0.0000E+00 3.6688E-01 6.6268E-01
 
  46.88% Completed


 DUMP OF INTERMEDIATE RESULTS IN SELECTED SEGMENTS
  TIME =   1D 21H  0M  0S .
 
 TOTAL MASS IN SYSTEM 9.7507E+03 0.0000E+00 3.4747E+03 6.2761E+03
 CHANGES BY PROCESSES 0.0000E+00 0.0000E+00 0.0000E+00 0.0000E+00
 CHANGES BY LOADS     0.0000E+00 0.0000E+00 0.0000E+00 0.0000E+00
 BOUNDARY INFLOWS     6.8400E+03 0.0000E+00 3.2400E+03 3.6000E+03
 BOUNDARY OUTFLOWS    6.8400E+03 0.0000E+00 3.2400E+03 3.6000E+03
                      Check      Initial    Lateral in Boundary F 
                                            flow       low        
 CONCENTRATION                           
 SWT_Normal           1.0296E+00 0.0000E+00 3.6688E-01 6.6268E-01
 
  47.92% Completed


 DUMP OF INTERMEDIATE RESULTS IN SELECTED SEGMENTS
  TIME =   1D 22H  0M  0S .
 
 TOTAL MASS IN SYSTEM 9.7507E+03 0.0000E+00 3.4747E+03 6.2761E+03
 CHANGES BY PROCESSES 0.0000E+00 0.0000E+00 0.0000E+00 0.0000E+00
 CHANGES BY LOADS     0.0000E+00 0.0000E+00 0.0000E+00 0.0000E+00
 BOUNDARY INFLOWS     6.8400E+03 0.0000E+00 3.2400E+03 3.6000E+03
 BOUNDARY OUTFLOWS    6.8400E+03 0.0000E+00 3.2400E+03 3.6000E+03
                      Check      Initial    Lateral in Boundary F 
                                            flow       low        
 CONCENTRATION                           
 SWT_Normal           1.0296E+00 0.0000E+00 3.6688E-01 6.6268E-01
 
  48.96% Completed


 DUMP OF INTERMEDIATE RESULTS IN SELECTED SEGMENTS
  TIME =   1D 23H  0M  0S .
 
 TOTAL MASS IN SYSTEM 9.7507E+03 0.0000E+00 3.4747E+03 6.2761E+03
 CHANGES BY PROCESSES 0.0000E+00 0.0000E+00 0.0000E+00 0.0000E+00
 CHANGES BY LOADS     0.0000E+00 0.0000E+00 0.0000E+00 0.0000E+00
 BOUNDARY INFLOWS     6.8400E+03 0.0000E+00 3.2400E+03 3.6000E+03
 BOUNDARY OUTFLOWS    6.8400E+03 0.0000E+00 3.2400E+03 3.6000E+03
                      Check      Initial    Lateral in Boundary F 
                                            flow       low        
 CONCENTRATION                           
 SWT_Normal           1.0296E+00 0.0000E+00 3.6688E-01 6.6268E-01
 
1
                                             Fraction calculation Sobek-WQ           
                                                                                     
                                                                                     
                                             T0: 2012.01.01 00:00:00  (scu=       1s)
  50.00% Completed


 DUMP OF INTERMEDIATE RESULTS IN SELECTED SEGMENTS
  TIME =   2D  0H  0M  0S .
 
 TOTAL MASS IN SYSTEM 9.7507E+03 0.0000E+00 3.4747E+03 6.2761E+03
 CHANGES BY PROCESSES 0.0000E+00 0.0000E+00 0.0000E+00 0.0000E+00
 CHANGES BY LOADS     0.0000E+00 0.0000E+00 0.0000E+00 0.0000E+00
 BOUNDARY INFLOWS     6.8400E+03 0.0000E+00 3.2400E+03 3.6000E+03
 BOUNDARY OUTFLOWS    6.8400E+03 0.0000E+00 3.2400E+03 3.6000E+03
                      Check      Initial    Lateral in Boundary F 
                                            flow       low        
 CONCENTRATION                           
 SWT_Normal           1.0296E+00 0.0000E+00 3.6688E-01 6.6268E-01
 
  51.04% Completed


 DUMP OF INTERMEDIATE RESULTS IN SELECTED SEGMENTS
  TIME =   2D  1H  0M  0S .
 
 TOTAL MASS IN SYSTEM 9.7507E+03 0.0000E+00 3.4747E+03 6.2761E+03
 CHANGES BY PROCESSES 0.0000E+00 0.0000E+00 0.0000E+00 0.0000E+00
 CHANGES BY LOADS     0.0000E+00 0.0000E+00 0.0000E+00 0.0000E+00
 BOUNDARY INFLOWS     6.8400E+03 0.0000E+00 3.2400E+03 3.6000E+03
 BOUNDARY OUTFLOWS    6.8400E+03 0.0000E+00 3.2400E+03 3.6000E+03
                      Check      Initial    Lateral in Boundary F 
                                            flow       low        
 CONCENTRATION                           
 SWT_Normal           1.0296E+00 0.0000E+00 3.6688E-01 6.6268E-01
 
  52.08% Completed


 DUMP OF INTERMEDIATE RESULTS IN SELECTED SEGMENTS
  TIME =   2D  2H  0M  0S .
 
 TOTAL MASS IN SYSTEM 9.7507E+03 0.0000E+00 3.4747E+03 6.2761E+03
 CHANGES BY PROCESSES 0.0000E+00 0.0000E+00 0.0000E+00 0.0000E+00
 CHANGES BY LOADS     0.0000E+00 0.0000E+00 0.0000E+00 0.0000E+00
 BOUNDARY INFLOWS     6.8400E+03 0.0000E+00 3.2400E+03 3.6000E+03
 BOUNDARY OUTFLOWS    6.8400E+03 0.0000E+00 3.2400E+03 3.6000E+03
                      Check      Initial    Lateral in Boundary F 
                                            flow       low        
 CONCENTRATION                           
 SWT_Normal           1.0296E+00 0.0000E+00 3.6688E-01 6.6268E-01
 
  53.12% Completed


 DUMP OF INTERMEDIATE RESULTS IN SELECTED SEGMENTS
  TIME =   2D  3H  0M  0S .
 
 TOTAL MASS IN SYSTEM 9.7507E+03 0.0000E+00 3.4747E+03 6.2761E+03
 CHANGES BY PROCESSES 0.0000E+00 0.0000E+00 0.0000E+00 0.0000E+00
 CHANGES BY LOADS     0.0000E+00 0.0000E+00 0.0000E+00 0.0000E+00
 BOUNDARY INFLOWS     6.8400E+03 0.0000E+00 3.2400E+03 3.6000E+03
 BOUNDARY OUTFLOWS    6.8400E+03 0.0000E+00 3.2400E+03 3.6000E+03
                      Check      Initial    Lateral in Boundary F 
                                            flow       low        
 CONCENTRATION                           
 SWT_Normal           1.0296E+00 0.0000E+00 3.6688E-01 6.6268E-01
 
1
                                             Fraction calculation Sobek-WQ           
                                                                                     
                                                                                     
                                             T0: 2012.01.01 00:00:00  (scu=       1s)
  54.17% Completed


 DUMP OF INTERMEDIATE RESULTS IN SELECTED SEGMENTS
  TIME =   2D  4H  0M  0S .
 
 TOTAL MASS IN SYSTEM 9.7507E+03 0.0000E+00 3.4747E+03 6.2761E+03
 CHANGES BY PROCESSES 0.0000E+00 0.0000E+00 0.0000E+00 0.0000E+00
 CHANGES BY LOADS     0.0000E+00 0.0000E+00 0.0000E+00 0.0000E+00
 BOUNDARY INFLOWS     6.8400E+03 0.0000E+00 3.2400E+03 3.6000E+03
 BOUNDARY OUTFLOWS    6.8400E+03 0.0000E+00 3.2400E+03 3.6000E+03
                      Check      Initial    Lateral in Boundary F 
                                            flow       low        
 CONCENTRATION                           
 SWT_Normal           1.0296E+00 0.0000E+00 3.6688E-01 6.6268E-01
 
  55.21% Completed


 DUMP OF INTERMEDIATE RESULTS IN SELECTED SEGMENTS
  TIME =   2D  5H  0M  0S .
 
 TOTAL MASS IN SYSTEM 9.7507E+03 0.0000E+00 3.4747E+03 6.2761E+03
 CHANGES BY PROCESSES 0.0000E+00 0.0000E+00 0.0000E+00 0.0000E+00
 CHANGES BY LOADS     0.0000E+00 0.0000E+00 0.0000E+00 0.0000E+00
 BOUNDARY INFLOWS     6.8400E+03 0.0000E+00 3.2400E+03 3.6000E+03
 BOUNDARY OUTFLOWS    6.8400E+03 0.0000E+00 3.2400E+03 3.6000E+03
                      Check      Initial    Lateral in Boundary F 
                                            flow       low        
 CONCENTRATION                           
 SWT_Normal           1.0296E+00 0.0000E+00 3.6688E-01 6.6268E-01
 
  56.25% Completed


 DUMP OF INTERMEDIATE RESULTS IN SELECTED SEGMENTS
  TIME =   2D  6H  0M  0S .
 
 TOTAL MASS IN SYSTEM 9.7507E+03 0.0000E+00 3.4747E+03 6.2761E+03
 CHANGES BY PROCESSES 0.0000E+00 0.0000E+00 0.0000E+00 0.0000E+00
 CHANGES BY LOADS     0.0000E+00 0.0000E+00 0.0000E+00 0.0000E+00
 BOUNDARY INFLOWS     6.8400E+03 0.0000E+00 3.2400E+03 3.6000E+03
 BOUNDARY OUTFLOWS    6.8400E+03 0.0000E+00 3.2400E+03 3.6000E+03
                      Check      Initial    Lateral in Boundary F 
                                            flow       low        
 CONCENTRATION                           
 SWT_Normal           1.0296E+00 0.0000E+00 3.6688E-01 6.6268E-01
 
  57.29% Completed


 DUMP OF INTERMEDIATE RESULTS IN SELECTED SEGMENTS
  TIME =   2D  7H  0M  0S .
 
 TOTAL MASS IN SYSTEM 9.7507E+03 0.0000E+00 3.4747E+03 6.2761E+03
 CHANGES BY PROCESSES 0.0000E+00 0.0000E+00 0.0000E+00 0.0000E+00
 CHANGES BY LOADS     0.0000E+00 0.0000E+00 0.0000E+00 0.0000E+00
 BOUNDARY INFLOWS     6.8400E+03 0.0000E+00 3.2400E+03 3.6000E+03
 BOUNDARY OUTFLOWS    6.8400E+03 0.0000E+00 3.2400E+03 3.6000E+03
                      Check      Initial    Lateral in Boundary F 
                                            flow       low        
 CONCENTRATION                           
 SWT_Normal           1.0296E+00 0.0000E+00 3.6688E-01 6.6268E-01
 
1
                                             Fraction calculation Sobek-WQ           
                                                                                     
                                                                                     
                                             T0: 2012.01.01 00:00:00  (scu=       1s)
  58.33% Completed


 DUMP OF INTERMEDIATE RESULTS IN SELECTED SEGMENTS
  TIME =   2D  8H  0M  0S .
 
 TOTAL MASS IN SYSTEM 9.7507E+03 0.0000E+00 3.4747E+03 6.2761E+03
 CHANGES BY PROCESSES 0.0000E+00 0.0000E+00 0.0000E+00 0.0000E+00
 CHANGES BY LOADS     0.0000E+00 0.0000E+00 0.0000E+00 0.0000E+00
 BOUNDARY INFLOWS     6.8400E+03 0.0000E+00 3.2400E+03 3.6000E+03
 BOUNDARY OUTFLOWS    6.8400E+03 0.0000E+00 3.2400E+03 3.6000E+03
                      Check      Initial    Lateral in Boundary F 
                                            flow       low        
 CONCENTRATION                           
 SWT_Normal           1.0296E+00 0.0000E+00 3.6688E-01 6.6268E-01
 
  59.38% Completed


 DUMP OF INTERMEDIATE RESULTS IN SELECTED SEGMENTS
  TIME =   2D  9H  0M  0S .
 
 TOTAL MASS IN SYSTEM 9.7507E+03 0.0000E+00 3.4747E+03 6.2761E+03
 CHANGES BY PROCESSES 0.0000E+00 0.0000E+00 0.0000E+00 0.0000E+00
 CHANGES BY LOADS     0.0000E+00 0.0000E+00 0.0000E+00 0.0000E+00
 BOUNDARY INFLOWS     6.8400E+03 0.0000E+00 3.2400E+03 3.6000E+03
 BOUNDARY OUTFLOWS    6.8400E+03 0.0000E+00 3.2400E+03 3.6000E+03
                      Check      Initial    Lateral in Boundary F 
                                            flow       low        
 CONCENTRATION                           
 SWT_Normal           1.0296E+00 0.0000E+00 3.6688E-01 6.6268E-01
 
  60.42% Completed


 DUMP OF INTERMEDIATE RESULTS IN SELECTED SEGMENTS
  TIME =   2D 10H  0M  0S .
 
 TOTAL MASS IN SYSTEM 9.7507E+03 0.0000E+00 3.4747E+03 6.2761E+03
 CHANGES BY PROCESSES 0.0000E+00 0.0000E+00 0.0000E+00 0.0000E+00
 CHANGES BY LOADS     0.0000E+00 0.0000E+00 0.0000E+00 0.0000E+00
 BOUNDARY INFLOWS     6.8400E+03 0.0000E+00 3.2400E+03 3.6000E+03
 BOUNDARY OUTFLOWS    6.8400E+03 0.0000E+00 3.2400E+03 3.6000E+03
                      Check      Initial    Lateral in Boundary F 
                                            flow       low        
 CONCENTRATION                           
 SWT_Normal           1.0296E+00 0.0000E+00 3.6688E-01 6.6268E-01
 
  61.46% Completed


 DUMP OF INTERMEDIATE RESULTS IN SELECTED SEGMENTS
  TIME =   2D 11H  0M  0S .
 
 TOTAL MASS IN SYSTEM 9.7507E+03 0.0000E+00 3.4747E+03 6.2761E+03
 CHANGES BY PROCESSES 0.0000E+00 0.0000E+00 0.0000E+00 0.0000E+00
 CHANGES BY LOADS     0.0000E+00 0.0000E+00 0.0000E+00 0.0000E+00
 BOUNDARY INFLOWS     6.8400E+03 0.0000E+00 3.2400E+03 3.6000E+03
 BOUNDARY OUTFLOWS    6.8400E+03 0.0000E+00 3.2400E+03 3.6000E+03
                      Check      Initial    Lateral in Boundary F 
                                            flow       low        
 CONCENTRATION                           
 SWT_Normal           1.0296E+00 0.0000E+00 3.6688E-01 6.6268E-01
 
1
                                             Fraction calculation Sobek-WQ           
                                                                                     
                                                                                     
                                             T0: 2012.01.01 00:00:00  (scu=       1s)
  62.50% Completed


 DUMP OF INTERMEDIATE RESULTS IN SELECTED SEGMENTS
  TIME =   2D 12H  0M  0S .
 
 TOTAL MASS IN SYSTEM 9.7507E+03 0.0000E+00 3.4747E+03 6.2761E+03
 CHANGES BY PROCESSES 0.0000E+00 0.0000E+00 0.0000E+00 0.0000E+00
 CHANGES BY LOADS     0.0000E+00 0.0000E+00 0.0000E+00 0.0000E+00
 BOUNDARY INFLOWS     6.8400E+03 0.0000E+00 3.2400E+03 3.6000E+03
 BOUNDARY OUTFLOWS    6.8400E+03 0.0000E+00 3.2400E+03 3.6000E+03
                      Check      Initial    Lateral in Boundary F 
                                            flow       low        
 CONCENTRATION                           
 SWT_Normal           1.0296E+00 0.0000E+00 3.6688E-01 6.6268E-01
 
  63.54% Completed


 DUMP OF INTERMEDIATE RESULTS IN SELECTED SEGMENTS
  TIME =   2D 13H  0M  0S .
 
 TOTAL MASS IN SYSTEM 9.7507E+03 0.0000E+00 3.4747E+03 6.2761E+03
 CHANGES BY PROCESSES 0.0000E+00 0.0000E+00 0.0000E+00 0.0000E+00
 CHANGES BY LOADS     0.0000E+00 0.0000E+00 0.0000E+00 0.0000E+00
 BOUNDARY INFLOWS     6.8400E+03 0.0000E+00 3.2400E+03 3.6000E+03
 BOUNDARY OUTFLOWS    6.8400E+03 0.0000E+00 3.2400E+03 3.6000E+03
                      Check      Initial    Lateral in Boundary F 
                                            flow       low        
 CONCENTRATION                           
 SWT_Normal           1.0296E+00 0.0000E+00 3.6688E-01 6.6268E-01
 
  64.58% Completed


 DUMP OF INTERMEDIATE RESULTS IN SELECTED SEGMENTS
  TIME =   2D 14H  0M  0S .
 
 TOTAL MASS IN SYSTEM 9.7507E+03 0.0000E+00 3.4747E+03 6.2761E+03
 CHANGES BY PROCESSES 0.0000E+00 0.0000E+00 0.0000E+00 0.0000E+00
 CHANGES BY LOADS     0.0000E+00 0.0000E+00 0.0000E+00 0.0000E+00
 BOUNDARY INFLOWS     6.8400E+03 0.0000E+00 3.2400E+03 3.6000E+03
 BOUNDARY OUTFLOWS    6.8400E+03 0.0000E+00 3.2400E+03 3.6000E+03
                      Check      Initial    Lateral in Boundary F 
                                            flow       low        
 CONCENTRATION                           
 SWT_Normal           1.0296E+00 0.0000E+00 3.6688E-01 6.6268E-01
 
  65.62% Completed


 DUMP OF INTERMEDIATE RESULTS IN SELECTED SEGMENTS
  TIME =   2D 15H  0M  0S .
 
 TOTAL MASS IN SYSTEM 9.7507E+03 0.0000E+00 3.4747E+03 6.2761E+03
 CHANGES BY PROCESSES 0.0000E+00 0.0000E+00 0.0000E+00 0.0000E+00
 CHANGES BY LOADS     0.0000E+00 0.0000E+00 0.0000E+00 0.0000E+00
 BOUNDARY INFLOWS     6.8400E+03 0.0000E+00 3.2400E+03 3.6000E+03
 BOUNDARY OUTFLOWS    6.8400E+03 0.0000E+00 3.2400E+03 3.6000E+03
                      Check      Initial    Lateral in Boundary F 
                                            flow       low        
 CONCENTRATION                           
 SWT_Normal           1.0296E+00 0.0000E+00 3.6688E-01 6.6268E-01
 
1
                                             Fraction calculation Sobek-WQ           
                                                                                     
                                                                                     
                                             T0: 2012.01.01 00:00:00  (scu=       1s)
  66.67% Completed


 DUMP OF INTERMEDIATE RESULTS IN SELECTED SEGMENTS
  TIME =   2D 16H  0M  0S .
 
 TOTAL MASS IN SYSTEM 9.7507E+03 0.0000E+00 3.4747E+03 6.2761E+03
 CHANGES BY PROCESSES 0.0000E+00 0.0000E+00 0.0000E+00 0.0000E+00
 CHANGES BY LOADS     0.0000E+00 0.0000E+00 0.0000E+00 0.0000E+00
 BOUNDARY INFLOWS     6.8400E+03 0.0000E+00 3.2400E+03 3.6000E+03
 BOUNDARY OUTFLOWS    6.8400E+03 0.0000E+00 3.2400E+03 3.6000E+03
                      Check      Initial    Lateral in Boundary F 
                                            flow       low        
 CONCENTRATION                           
 SWT_Normal           1.0296E+00 0.0000E+00 3.6688E-01 6.6268E-01
 
  67.71% Completed


 DUMP OF INTERMEDIATE RESULTS IN SELECTED SEGMENTS
  TIME =   2D 17H  0M  0S .
 
 TOTAL MASS IN SYSTEM 9.7507E+03 0.0000E+00 3.4747E+03 6.2761E+03
 CHANGES BY PROCESSES 0.0000E+00 0.0000E+00 0.0000E+00 0.0000E+00
 CHANGES BY LOADS     0.0000E+00 0.0000E+00 0.0000E+00 0.0000E+00
 BOUNDARY INFLOWS     6.8400E+03 0.0000E+00 3.2400E+03 3.6000E+03
 BOUNDARY OUTFLOWS    6.8400E+03 0.0000E+00 3.2400E+03 3.6000E+03
                      Check      Initial    Lateral in Boundary F 
                                            flow       low        
 CONCENTRATION                           
 SWT_Normal           1.0296E+00 0.0000E+00 3.6688E-01 6.6268E-01
 
  68.75% Completed


 DUMP OF INTERMEDIATE RESULTS IN SELECTED SEGMENTS
  TIME =   2D 18H  0M  0S .
 
 TOTAL MASS IN SYSTEM 9.7507E+03 0.0000E+00 3.4747E+03 6.2761E+03
 CHANGES BY PROCESSES 0.0000E+00 0.0000E+00 0.0000E+00 0.0000E+00
 CHANGES BY LOADS     0.0000E+00 0.0000E+00 0.0000E+00 0.0000E+00
 BOUNDARY INFLOWS     6.8400E+03 0.0000E+00 3.2400E+03 3.6000E+03
 BOUNDARY OUTFLOWS    6.8400E+03 0.0000E+00 3.2400E+03 3.6000E+03
                      Check      Initial    Lateral in Boundary F 
                                            flow       low        
 CONCENTRATION                           
 SWT_Normal           1.0296E+00 0.0000E+00 3.6688E-01 6.6268E-01
 
  69.79% Completed


 DUMP OF INTERMEDIATE RESULTS IN SELECTED SEGMENTS
  TIME =   2D 19H  0M  0S .
 
 TOTAL MASS IN SYSTEM 9.7507E+03 0.0000E+00 3.4747E+03 6.2761E+03
 CHANGES BY PROCESSES 0.0000E+00 0.0000E+00 0.0000E+00 0.0000E+00
 CHANGES BY LOADS     0.0000E+00 0.0000E+00 0.0000E+00 0.0000E+00
 BOUNDARY INFLOWS     6.8400E+03 0.0000E+00 3.2400E+03 3.6000E+03
 BOUNDARY OUTFLOWS    6.8400E+03 0.0000E+00 3.2400E+03 3.6000E+03
                      Check      Initial    Lateral in Boundary F 
                                            flow       low        
 CONCENTRATION                           
 SWT_Normal           1.0296E+00 0.0000E+00 3.6688E-01 6.6268E-01
 
1
                                             Fraction calculation Sobek-WQ           
                                                                                     
                                                                                     
                                             T0: 2012.01.01 00:00:00  (scu=       1s)
  70.83% Completed


 DUMP OF INTERMEDIATE RESULTS IN SELECTED SEGMENTS
  TIME =   2D 20H  0M  0S .
 
 TOTAL MASS IN SYSTEM 9.7507E+03 0.0000E+00 3.4747E+03 6.2761E+03
 CHANGES BY PROCESSES 0.0000E+00 0.0000E+00 0.0000E+00 0.0000E+00
 CHANGES BY LOADS     0.0000E+00 0.0000E+00 0.0000E+00 0.0000E+00
 BOUNDARY INFLOWS     6.8400E+03 0.0000E+00 3.2400E+03 3.6000E+03
 BOUNDARY OUTFLOWS    6.8400E+03 0.0000E+00 3.2400E+03 3.6000E+03
                      Check      Initial    Lateral in Boundary F 
                                            flow       low        
 CONCENTRATION                           
 SWT_Normal           1.0296E+00 0.0000E+00 3.6688E-01 6.6268E-01
 
  71.88% Completed


 DUMP OF INTERMEDIATE RESULTS IN SELECTED SEGMENTS
  TIME =   2D 21H  0M  0S .
 
 TOTAL MASS IN SYSTEM 9.7507E+03 0.0000E+00 3.4747E+03 6.2761E+03
 CHANGES BY PROCESSES 0.0000E+00 0.0000E+00 0.0000E+00 0.0000E+00
 CHANGES BY LOADS     0.0000E+00 0.0000E+00 0.0000E+00 0.0000E+00
 BOUNDARY INFLOWS     6.8400E+03 0.0000E+00 3.2400E+03 3.6000E+03
 BOUNDARY OUTFLOWS    6.8400E+03 0.0000E+00 3.2400E+03 3.6000E+03
                      Check      Initial    Lateral in Boundary F 
                                            flow       low        
 CONCENTRATION                           
 SWT_Normal           1.0296E+00 0.0000E+00 3.6688E-01 6.6268E-01
 
  72.92% Completed


 DUMP OF INTERMEDIATE RESULTS IN SELECTED SEGMENTS
  TIME =   2D 22H  0M  0S .
 
 TOTAL MASS IN SYSTEM 9.7507E+03 0.0000E+00 3.4747E+03 6.2761E+03
 CHANGES BY PROCESSES 0.0000E+00 0.0000E+00 0.0000E+00 0.0000E+00
 CHANGES BY LOADS     0.0000E+00 0.0000E+00 0.0000E+00 0.0000E+00
 BOUNDARY INFLOWS     6.8400E+03 0.0000E+00 3.2400E+03 3.6000E+03
 BOUNDARY OUTFLOWS    6.8400E+03 0.0000E+00 3.2400E+03 3.6000E+03
                      Check      Initial    Lateral in Boundary F 
                                            flow       low        
 CONCENTRATION                           
 SWT_Normal           1.0296E+00 0.0000E+00 3.6688E-01 6.6268E-01
 
  73.96% Completed


 DUMP OF INTERMEDIATE RESULTS IN SELECTED SEGMENTS
  TIME =   2D 23H  0M  0S .
 
 TOTAL MASS IN SYSTEM 9.7507E+03 0.0000E+00 3.4747E+03 6.2761E+03
 CHANGES BY PROCESSES 0.0000E+00 0.0000E+00 0.0000E+00 0.0000E+00
 CHANGES BY LOADS     0.0000E+00 0.0000E+00 0.0000E+00 0.0000E+00
 BOUNDARY INFLOWS     6.8400E+03 0.0000E+00 3.2400E+03 3.6000E+03
 BOUNDARY OUTFLOWS    6.8400E+03 0.0000E+00 3.2400E+03 3.6000E+03
                      Check      Initial    Lateral in Boundary F 
                                            flow       low        
 CONCENTRATION                           
 SWT_Normal           1.0296E+00 0.0000E+00 3.6688E-01 6.6268E-01
 
1
                                             Fraction calculation Sobek-WQ           
                                                                                     
                                                                                     
                                             T0: 2012.01.01 00:00:00  (scu=       1s)
  75.00% Completed


 DUMP OF INTERMEDIATE RESULTS IN SELECTED SEGMENTS
  TIME =   3D  0H  0M  0S .
 
 TOTAL MASS IN SYSTEM 9.7507E+03 0.0000E+00 3.4747E+03 6.2761E+03
 CHANGES BY PROCESSES 0.0000E+00 0.0000E+00 0.0000E+00 0.0000E+00
 CHANGES BY LOADS     0.0000E+00 0.0000E+00 0.0000E+00 0.0000E+00
 BOUNDARY INFLOWS     6.8400E+03 0.0000E+00 3.2400E+03 3.6000E+03
 BOUNDARY OUTFLOWS    6.8400E+03 0.0000E+00 3.2400E+03 3.6000E+03
                      Check      Initial    Lateral in Boundary F 
                                            flow       low        
 CONCENTRATION                           
 SWT_Normal           1.0296E+00 0.0000E+00 3.6688E-01 6.6268E-01
 
  76.04% Completed


 DUMP OF INTERMEDIATE RESULTS IN SELECTED SEGMENTS
  TIME =   3D  1H  0M  0S .
 
 TOTAL MASS IN SYSTEM 9.7507E+03 0.0000E+00 3.4747E+03 6.2761E+03
 CHANGES BY PROCESSES 0.0000E+00 0.0000E+00 0.0000E+00 0.0000E+00
 CHANGES BY LOADS     0.0000E+00 0.0000E+00 0.0000E+00 0.0000E+00
 BOUNDARY INFLOWS     6.8400E+03 0.0000E+00 3.2400E+03 3.6000E+03
 BOUNDARY OUTFLOWS    6.8400E+03 0.0000E+00 3.2400E+03 3.6000E+03
                      Check      Initial    Lateral in Boundary F 
                                            flow       low        
 CONCENTRATION                           
 SWT_Normal           1.0296E+00 0.0000E+00 3.6688E-01 6.6268E-01
 
  77.08% Completed


 DUMP OF INTERMEDIATE RESULTS IN SELECTED SEGMENTS
  TIME =   3D  2H  0M  0S .
 
 TOTAL MASS IN SYSTEM 9.7507E+03 0.0000E+00 3.4747E+03 6.2761E+03
 CHANGES BY PROCESSES 0.0000E+00 0.0000E+00 0.0000E+00 0.0000E+00
 CHANGES BY LOADS     0.0000E+00 0.0000E+00 0.0000E+00 0.0000E+00
 BOUNDARY INFLOWS     6.8400E+03 0.0000E+00 3.2400E+03 3.6000E+03
 BOUNDARY OUTFLOWS    6.8400E+03 0.0000E+00 3.2400E+03 3.6000E+03
                      Check      Initial    Lateral in Boundary F 
                                            flow       low        
 CONCENTRATION                           
 SWT_Normal           1.0296E+00 0.0000E+00 3.6688E-01 6.6268E-01
 
  78.12% Completed


 DUMP OF INTERMEDIATE RESULTS IN SELECTED SEGMENTS
  TIME =   3D  3H  0M  0S .
 
 TOTAL MASS IN SYSTEM 9.7507E+03 0.0000E+00 3.4747E+03 6.2761E+03
 CHANGES BY PROCESSES 0.0000E+00 0.0000E+00 0.0000E+00 0.0000E+00
 CHANGES BY LOADS     0.0000E+00 0.0000E+00 0.0000E+00 0.0000E+00
 BOUNDARY INFLOWS     6.8400E+03 0.0000E+00 3.2400E+03 3.6000E+03
 BOUNDARY OUTFLOWS    6.8400E+03 0.0000E+00 3.2400E+03 3.6000E+03
                      Check      Initial    Lateral in Boundary F 
                                            flow       low        
 CONCENTRATION                           
 SWT_Normal           1.0296E+00 0.0000E+00 3.6688E-01 6.6268E-01
 
1
                                             Fraction calculation Sobek-WQ           
                                                                                     
                                                                                     
                                             T0: 2012.01.01 00:00:00  (scu=       1s)
  79.17% Completed


 DUMP OF INTERMEDIATE RESULTS IN SELECTED SEGMENTS
  TIME =   3D  4H  0M  0S .
 
 TOTAL MASS IN SYSTEM 9.7507E+03 0.0000E+00 3.4747E+03 6.2761E+03
 CHANGES BY PROCESSES 0.0000E+00 0.0000E+00 0.0000E+00 0.0000E+00
 CHANGES BY LOADS     0.0000E+00 0.0000E+00 0.0000E+00 0.0000E+00
 BOUNDARY INFLOWS     6.8400E+03 0.0000E+00 3.2400E+03 3.6000E+03
 BOUNDARY OUTFLOWS    6.8400E+03 0.0000E+00 3.2400E+03 3.6000E+03
                      Check      Initial    Lateral in Boundary F 
                                            flow       low        
 CONCENTRATION                           
 SWT_Normal           1.0296E+00 0.0000E+00 3.6688E-01 6.6268E-01
 
  80.21% Completed


 DUMP OF INTERMEDIATE RESULTS IN SELECTED SEGMENTS
  TIME =   3D  5H  0M  0S .
 
 TOTAL MASS IN SYSTEM 9.7507E+03 0.0000E+00 3.4747E+03 6.2761E+03
 CHANGES BY PROCESSES 0.0000E+00 0.0000E+00 0.0000E+00 0.0000E+00
 CHANGES BY LOADS     0.0000E+00 0.0000E+00 0.0000E+00 0.0000E+00
 BOUNDARY INFLOWS     6.8400E+03 0.0000E+00 3.2400E+03 3.6000E+03
 BOUNDARY OUTFLOWS    6.8400E+03 0.0000E+00 3.2400E+03 3.6000E+03
                      Check      Initial    Lateral in Boundary F 
                                            flow       low        
 CONCENTRATION                           
 SWT_Normal           1.0296E+00 0.0000E+00 3.6688E-01 6.6268E-01
 
  81.25% Completed


 DUMP OF INTERMEDIATE RESULTS IN SELECTED SEGMENTS
  TIME =   3D  6H  0M  0S .
 
 TOTAL MASS IN SYSTEM 9.7507E+03 0.0000E+00 3.4747E+03 6.2761E+03
 CHANGES BY PROCESSES 0.0000E+00 0.0000E+00 0.0000E+00 0.0000E+00
 CHANGES BY LOADS     0.0000E+00 0.0000E+00 0.0000E+00 0.0000E+00
 BOUNDARY INFLOWS     6.8400E+03 0.0000E+00 3.2400E+03 3.6000E+03
 BOUNDARY OUTFLOWS    6.8400E+03 0.0000E+00 3.2400E+03 3.6000E+03
                      Check      Initial    Lateral in Boundary F 
                                            flow       low        
 CONCENTRATION                           
 SWT_Normal           1.0296E+00 0.0000E+00 3.6688E-01 6.6268E-01
 
  82.29% Completed


 DUMP OF INTERMEDIATE RESULTS IN SELECTED SEGMENTS
  TIME =   3D  7H  0M  0S .
 
 TOTAL MASS IN SYSTEM 9.7507E+03 0.0000E+00 3.4747E+03 6.2761E+03
 CHANGES BY PROCESSES 0.0000E+00 0.0000E+00 0.0000E+00 0.0000E+00
 CHANGES BY LOADS     0.0000E+00 0.0000E+00 0.0000E+00 0.0000E+00
 BOUNDARY INFLOWS     6.8400E+03 0.0000E+00 3.2400E+03 3.6000E+03
 BOUNDARY OUTFLOWS    6.8400E+03 0.0000E+00 3.2400E+03 3.6000E+03
                      Check      Initial    Lateral in Boundary F 
                                            flow       low        
 CONCENTRATION                           
 SWT_Normal           1.0296E+00 0.0000E+00 3.6688E-01 6.6268E-01
 
1
                                             Fraction calculation Sobek-WQ           
                                                                                     
                                                                                     
                                             T0: 2012.01.01 00:00:00  (scu=       1s)
  83.33% Completed


 DUMP OF INTERMEDIATE RESULTS IN SELECTED SEGMENTS
  TIME =   3D  8H  0M  0S .
 
 TOTAL MASS IN SYSTEM 9.7507E+03 0.0000E+00 3.4747E+03 6.2761E+03
 CHANGES BY PROCESSES 0.0000E+00 0.0000E+00 0.0000E+00 0.0000E+00
 CHANGES BY LOADS     0.0000E+00 0.0000E+00 0.0000E+00 0.0000E+00
 BOUNDARY INFLOWS     6.8400E+03 0.0000E+00 3.2400E+03 3.6000E+03
 BOUNDARY OUTFLOWS    6.8400E+03 0.0000E+00 3.2400E+03 3.6000E+03
                      Check      Initial    Lateral in Boundary F 
                                            flow       low        
 CONCENTRATION                           
 SWT_Normal           1.0296E+00 0.0000E+00 3.6688E-01 6.6268E-01
 
  84.38% Completed


 DUMP OF INTERMEDIATE RESULTS IN SELECTED SEGMENTS
  TIME =   3D  9H  0M  0S .
 
 TOTAL MASS IN SYSTEM 9.7507E+03 0.0000E+00 3.4747E+03 6.2761E+03
 CHANGES BY PROCESSES 0.0000E+00 0.0000E+00 0.0000E+00 0.0000E+00
 CHANGES BY LOADS     0.0000E+00 0.0000E+00 0.0000E+00 0.0000E+00
 BOUNDARY INFLOWS     6.8400E+03 0.0000E+00 3.2400E+03 3.6000E+03
 BOUNDARY OUTFLOWS    6.8400E+03 0.0000E+00 3.2400E+03 3.6000E+03
                      Check      Initial    Lateral in Boundary F 
                                            flow       low        
 CONCENTRATION                           
 SWT_Normal           1.0296E+00 0.0000E+00 3.6688E-01 6.6268E-01
 
  85.42% Completed


 DUMP OF INTERMEDIATE RESULTS IN SELECTED SEGMENTS
  TIME =   3D 10H  0M  0S .
 
 TOTAL MASS IN SYSTEM 9.7507E+03 0.0000E+00 3.4747E+03 6.2761E+03
 CHANGES BY PROCESSES 0.0000E+00 0.0000E+00 0.0000E+00 0.0000E+00
 CHANGES BY LOADS     0.0000E+00 0.0000E+00 0.0000E+00 0.0000E+00
 BOUNDARY INFLOWS     6.8400E+03 0.0000E+00 3.2400E+03 3.6000E+03
 BOUNDARY OUTFLOWS    6.8400E+03 0.0000E+00 3.2400E+03 3.6000E+03
                      Check      Initial    Lateral in Boundary F 
                                            flow       low        
 CONCENTRATION                           
 SWT_Normal           1.0296E+00 0.0000E+00 3.6688E-01 6.6268E-01
 
  86.46% Completed


 DUMP OF INTERMEDIATE RESULTS IN SELECTED SEGMENTS
  TIME =   3D 11H  0M  0S .
 
 TOTAL MASS IN SYSTEM 9.7507E+03 0.0000E+00 3.4747E+03 6.2761E+03
 CHANGES BY PROCESSES 0.0000E+00 0.0000E+00 0.0000E+00 0.0000E+00
 CHANGES BY LOADS     0.0000E+00 0.0000E+00 0.0000E+00 0.0000E+00
 BOUNDARY INFLOWS     6.8400E+03 0.0000E+00 3.2400E+03 3.6000E+03
 BOUNDARY OUTFLOWS    6.8400E+03 0.0000E+00 3.2400E+03 3.6000E+03
                      Check      Initial    Lateral in Boundary F 
                                            flow       low        
 CONCENTRATION                           
 SWT_Normal           1.0296E+00 0.0000E+00 3.6688E-01 6.6268E-01
 
1
                                             Fraction calculation Sobek-WQ           
                                                                                     
                                                                                     
                                             T0: 2012.01.01 00:00:00  (scu=       1s)
  87.50% Completed


 DUMP OF INTERMEDIATE RESULTS IN SELECTED SEGMENTS
  TIME =   3D 12H  0M  0S .
 
 TOTAL MASS IN SYSTEM 9.7507E+03 0.0000E+00 3.4747E+03 6.2761E+03
 CHANGES BY PROCESSES 0.0000E+00 0.0000E+00 0.0000E+00 0.0000E+00
 CHANGES BY LOADS     0.0000E+00 0.0000E+00 0.0000E+00 0.0000E+00
 BOUNDARY INFLOWS     6.8400E+03 0.0000E+00 3.2400E+03 3.6000E+03
 BOUNDARY OUTFLOWS    6.8400E+03 0.0000E+00 3.2400E+03 3.6000E+03
                      Check      Initial    Lateral in Boundary F 
                                            flow       low        
 CONCENTRATION                           
 SWT_Normal           1.0296E+00 0.0000E+00 3.6688E-01 6.6268E-01
 
  88.54% Completed


 DUMP OF INTERMEDIATE RESULTS IN SELECTED SEGMENTS
  TIME =   3D 13H  0M  0S .
 
 TOTAL MASS IN SYSTEM 9.7507E+03 0.0000E+00 3.4747E+03 6.2761E+03
 CHANGES BY PROCESSES 0.0000E+00 0.0000E+00 0.0000E+00 0.0000E+00
 CHANGES BY LOADS     0.0000E+00 0.0000E+00 0.0000E+00 0.0000E+00
 BOUNDARY INFLOWS     6.8400E+03 0.0000E+00 3.2400E+03 3.6000E+03
 BOUNDARY OUTFLOWS    6.8400E+03 0.0000E+00 3.2400E+03 3.6000E+03
                      Check      Initial    Lateral in Boundary F 
                                            flow       low        
 CONCENTRATION                           
 SWT_Normal           1.0296E+00 0.0000E+00 3.6688E-01 6.6268E-01
 
  89.58% Completed


 DUMP OF INTERMEDIATE RESULTS IN SELECTED SEGMENTS
  TIME =   3D 14H  0M  0S .
 
 TOTAL MASS IN SYSTEM 9.7507E+03 0.0000E+00 3.4747E+03 6.2761E+03
 CHANGES BY PROCESSES 0.0000E+00 0.0000E+00 0.0000E+00 0.0000E+00
 CHANGES BY LOADS     0.0000E+00 0.0000E+00 0.0000E+00 0.0000E+00
 BOUNDARY INFLOWS     6.8400E+03 0.0000E+00 3.2400E+03 3.6000E+03
 BOUNDARY OUTFLOWS    6.8400E+03 0.0000E+00 3.2400E+03 3.6000E+03
                      Check      Initial    Lateral in Boundary F 
                                            flow       low        
 CONCENTRATION                           
 SWT_Normal           1.0296E+00 0.0000E+00 3.6688E-01 6.6268E-01
 
  90.62% Completed


 DUMP OF INTERMEDIATE RESULTS IN SELECTED SEGMENTS
  TIME =   3D 15H  0M  0S .
 
 TOTAL MASS IN SYSTEM 9.7507E+03 0.0000E+00 3.4747E+03 6.2761E+03
 CHANGES BY PROCESSES 0.0000E+00 0.0000E+00 0.0000E+00 0.0000E+00
 CHANGES BY LOADS     0.0000E+00 0.0000E+00 0.0000E+00 0.0000E+00
 BOUNDARY INFLOWS     6.8400E+03 0.0000E+00 3.2400E+03 3.6000E+03
 BOUNDARY OUTFLOWS    6.8400E+03 0.0000E+00 3.2400E+03 3.6000E+03
                      Check      Initial    Lateral in Boundary F 
                                            flow       low        
 CONCENTRATION                           
 SWT_Normal           1.0296E+00 0.0000E+00 3.6688E-01 6.6268E-01
 
1
                                             Fraction calculation Sobek-WQ           
                                                                                     
                                                                                     
                                             T0: 2012.01.01 00:00:00  (scu=       1s)
  91.67% Completed


 DUMP OF INTERMEDIATE RESULTS IN SELECTED SEGMENTS
  TIME =   3D 16H  0M  0S .
 
 TOTAL MASS IN SYSTEM 9.7507E+03 0.0000E+00 3.4747E+03 6.2761E+03
 CHANGES BY PROCESSES 0.0000E+00 0.0000E+00 0.0000E+00 0.0000E+00
 CHANGES BY LOADS     0.0000E+00 0.0000E+00 0.0000E+00 0.0000E+00
 BOUNDARY INFLOWS     6.8400E+03 0.0000E+00 3.2400E+03 3.6000E+03
 BOUNDARY OUTFLOWS    6.8400E+03 0.0000E+00 3.2400E+03 3.6000E+03
                      Check      Initial    Lateral in Boundary F 
                                            flow       low        
 CONCENTRATION                           
 SWT_Normal           1.0296E+00 0.0000E+00 3.6688E-01 6.6268E-01
 
  92.71% Completed


 DUMP OF INTERMEDIATE RESULTS IN SELECTED SEGMENTS
  TIME =   3D 17H  0M  0S .
 
 TOTAL MASS IN SYSTEM 9.7507E+03 0.0000E+00 3.4747E+03 6.2761E+03
 CHANGES BY PROCESSES 0.0000E+00 0.0000E+00 0.0000E+00 0.0000E+00
 CHANGES BY LOADS     0.0000E+00 0.0000E+00 0.0000E+00 0.0000E+00
 BOUNDARY INFLOWS     6.8400E+03 0.0000E+00 3.2400E+03 3.6000E+03
 BOUNDARY OUTFLOWS    6.8400E+03 0.0000E+00 3.2400E+03 3.6000E+03
                      Check      Initial    Lateral in Boundary F 
                                            flow       low        
 CONCENTRATION                           
 SWT_Normal           1.0296E+00 0.0000E+00 3.6688E-01 6.6268E-01
 
  93.75% Completed


 DUMP OF INTERMEDIATE RESULTS IN SELECTED SEGMENTS
  TIME =   3D 18H  0M  0S .
 
 TOTAL MASS IN SYSTEM 9.7507E+03 0.0000E+00 3.4747E+03 6.2761E+03
 CHANGES BY PROCESSES 0.0000E+00 0.0000E+00 0.0000E+00 0.0000E+00
 CHANGES BY LOADS     0.0000E+00 0.0000E+00 0.0000E+00 0.0000E+00
 BOUNDARY INFLOWS     6.8400E+03 0.0000E+00 3.2400E+03 3.6000E+03
 BOUNDARY OUTFLOWS    6.8400E+03 0.0000E+00 3.2400E+03 3.6000E+03
                      Check      Initial    Lateral in Boundary F 
                                            flow       low        
 CONCENTRATION                           
 SWT_Normal           1.0296E+00 0.0000E+00 3.6688E-01 6.6268E-01
 
  94.79% Completed


 DUMP OF INTERMEDIATE RESULTS IN SELECTED SEGMENTS
  TIME =   3D 19H  0M  0S .
 
 TOTAL MASS IN SYSTEM 9.7507E+03 0.0000E+00 3.4747E+03 6.2761E+03
 CHANGES BY PROCESSES 0.0000E+00 0.0000E+00 0.0000E+00 0.0000E+00
 CHANGES BY LOADS     0.0000E+00 0.0000E+00 0.0000E+00 0.0000E+00
 BOUNDARY INFLOWS     6.8400E+03 0.0000E+00 3.2400E+03 3.6000E+03
 BOUNDARY OUTFLOWS    6.8400E+03 0.0000E+00 3.2400E+03 3.6000E+03
                      Check      Initial    Lateral in Boundary F 
                                            flow       low        
 CONCENTRATION                           
 SWT_Normal           1.0296E+00 0.0000E+00 3.6688E-01 6.6268E-01
 
1
                                             Fraction calculation Sobek-WQ           
                                                                                     
                                                                                     
                                             T0: 2012.01.01 00:00:00  (scu=       1s)
  95.83% Completed


 DUMP OF INTERMEDIATE RESULTS IN SELECTED SEGMENTS
  TIME =   3D 20H  0M  0S .
 
 TOTAL MASS IN SYSTEM 9.7507E+03 0.0000E+00 3.4747E+03 6.2761E+03
 CHANGES BY PROCESSES 0.0000E+00 0.0000E+00 0.0000E+00 0.0000E+00
 CHANGES BY LOADS     0.0000E+00 0.0000E+00 0.0000E+00 0.0000E+00
 BOUNDARY INFLOWS     6.8400E+03 0.0000E+00 3.2400E+03 3.6000E+03
 BOUNDARY OUTFLOWS    6.8400E+03 0.0000E+00 3.2400E+03 3.6000E+03
                      Check      Initial    Lateral in Boundary F 
                                            flow       low        
 CONCENTRATION                           
 SWT_Normal           1.0296E+00 0.0000E+00 3.6688E-01 6.6268E-01
 
  96.88% Completed


 DUMP OF INTERMEDIATE RESULTS IN SELECTED SEGMENTS
  TIME =   3D 21H  0M  0S .
 
 TOTAL MASS IN SYSTEM 9.7507E+03 0.0000E+00 3.4747E+03 6.2761E+03
 CHANGES BY PROCESSES 0.0000E+00 0.0000E+00 0.0000E+00 0.0000E+00
 CHANGES BY LOADS     0.0000E+00 0.0000E+00 0.0000E+00 0.0000E+00
 BOUNDARY INFLOWS     6.8400E+03 0.0000E+00 3.2400E+03 3.6000E+03
 BOUNDARY OUTFLOWS    6.8400E+03 0.0000E+00 3.2400E+03 3.6000E+03
                      Check      Initial    Lateral in Boundary F 
                                            flow       low        
 CONCENTRATION                           
 SWT_Normal           1.0296E+00 0.0000E+00 3.6688E-01 6.6268E-01
 
  97.92% Completed


 DUMP OF INTERMEDIATE RESULTS IN SELECTED SEGMENTS
  TIME =   3D 22H  0M  0S .
 
 TOTAL MASS IN SYSTEM 9.7507E+03 0.0000E+00 3.4747E+03 6.2761E+03
 CHANGES BY PROCESSES 0.0000E+00 0.0000E+00 0.0000E+00 0.0000E+00
 CHANGES BY LOADS     0.0000E+00 0.0000E+00 0.0000E+00 0.0000E+00
 BOUNDARY INFLOWS     6.8400E+03 0.0000E+00 3.2400E+03 3.6000E+03
 BOUNDARY OUTFLOWS    6.8400E+03 0.0000E+00 3.2400E+03 3.6000E+03
                      Check      Initial    Lateral in Boundary F 
                                            flow       low        
 CONCENTRATION                           
 SWT_Normal           1.0296E+00 0.0000E+00 3.6688E-01 6.6268E-01
 
  98.96% Completed


 DUMP OF INTERMEDIATE RESULTS IN SELECTED SEGMENTS
  TIME =   3D 23H  0M  0S .
 
 TOTAL MASS IN SYSTEM 9.7507E+03 0.0000E+00 3.4747E+03 6.2761E+03
 CHANGES BY PROCESSES 0.0000E+00 0.0000E+00 0.0000E+00 0.0000E+00
 CHANGES BY LOADS     0.0000E+00 0.0000E+00 0.0000E+00 0.0000E+00
 BOUNDARY INFLOWS     6.8400E+03 0.0000E+00 3.2400E+03 3.6000E+03
 BOUNDARY OUTFLOWS    6.8400E+03 0.0000E+00 3.2400E+03 3.6000E+03
                      Check      Initial    Lateral in Boundary F 
                                            flow       low        
 CONCENTRATION                           
 SWT_Normal           1.0296E+00 0.0000E+00 3.6688E-01 6.6268E-01
 

 REWIND ON       UNIT:  23, READING: ..\work\Area.dat
 AT SIMULATION TIME:    4D  0H  0M  0S !
 TIME IN FILE:          4D  0H  0M  0S !

 REWIND ON       UNIT:  24, READING: ..\work\Flow.dat
 AT SIMULATION TIME:    4D  0H  0M  0S !
 TIME IN FILE:          4D  0H  0M  0S !
1
                                             Fraction calculation Sobek-WQ           
                                                                                     
                                                                                     
                                             T0: 2012.01.01 00:00:00  (scu=       1s)
 100.00% Completed


 DUMP OF INTERMEDIATE RESULTS IN SELECTED SEGMENTS
  TIME =   4D  0H  0M  0S .
 
 TOTAL MASS IN SYSTEM 9.7507E+03 0.0000E+00 3.4747E+03 6.2761E+03
 CHANGES BY PROCESSES 0.0000E+00 0.0000E+00 0.0000E+00 0.0000E+00
 CHANGES BY LOADS     0.0000E+00 0.0000E+00 0.0000E+00 0.0000E+00
 BOUNDARY INFLOWS     6.8400E+03 0.0000E+00 3.2400E+03 3.6000E+03
 BOUNDARY OUTFLOWS    6.8400E+03 0.0000E+00 3.2400E+03 3.6000E+03
                      Check      Initial    Lateral in Boundary F 
                                            flow       low        
 CONCENTRATION                           
 SWT_Normal           1.0296E+00 0.0000E+00 3.6688E-01 6.6268E-01
 
Performance timers:
|------------------------------------------------------------------------|
|Timer name                     |   cpu time        |    wall clock      |
|                               |-------------------|--------------------|
|                     | #times  |   sec     |  %    |    sec     |  %    |
|------------------------------------------------------------------------|
|Total                |       1 |       3.0 | 100.0 |        0.4 | 100.0 | 
|------------------------------------------------------------------------|
| *** In init, simulation:                                               |
|------------------------------------------------------------------------|
|Initialization       |       1 |       0.0 |   0.0 |        0.0 |   0.0 | 
|Integrat.routine 15  |       1 |       3.0 | 100.0 |        0.4 | 100.0 | 
|Total:               |         |       3.0 | 100.0 |        0.4 | 100.0 | 
|------------------------------------------------------------------------|
| *** In integration routine:                                            |
|------------------------------------------------------------------------|
|Total Integration:   |         |       0.0 |   0.0 |        0.0 |   0.0 | 
|------------------------------------------------------------------------|
| *** In processes library:                                              |
|------------------------------------------------------------------------|
|Total Processes:     |         |       0.0 |   0.0 |        0.0 |   0.0 | 
|------------------------------------------------------------------------|
| *** In CouPLib communications library:                                 |
|------------------------------------------------------------------------|
|Index-sets           |       6 |       0.0 |   0.0 |        0.0 |   0.0 | 
|Interfaces           |       6 |       0.0 |   0.0 |        0.0 |   0.0 | 
|Total Communication: |         |       0.0 |   0.0 |        0.0 |   0.0 | 
|------------------------------------------------------------------------|
 
 Simulation ended normal
 Execution stop : 2013/12/04 16:13:14 
