 Delft3D-WAQ version  4.5204 16-03-2009
 Only to be used by SOBEK licensee                          
 (c) Deltares
 Execution start: 2012/09/17 00:08:52 
       ----------> Version number of the input file is: 4.910
       ----------> Output level of the listfile is: 4


 Model :            Fraction calculation Sobek-WQ           
                                                            

 Including file: \SOB21204\LSM0_9D.LIT\WORK\DELWAQ4.INP                                                                                                                                                                                                                                                                                                                                                                                                                                                                                                                                                                                                                                                                                                                                                                                                                                                                                                                                                                                                  


 Run   :                                                    
                    T0: 2003.08.01 00:00:00  (scu=       1s)

 Intermediate version absolute timer detected !
 System clock is     1 seconds !

 Closing file: \SOB21204\LSM0_9D.LIT\WORK\DELWAQ4.INP                                        

 Continuing on file: delwaq.inp                                                                    

 Including file: ..\work\substanc.fra                                                                                                                                                                                                                                                                                                                                                                                                                                                                                                                                                                                                                                                                                                                                                                                                                                                                                                                                                                                                                    

 Number of active constituents   : 41
 Number of inactive constituents :  0
 Total number of constituents    : 41
 Number   name
    1     Check               
    2     Initial             
    3     Lateral inflow      
    4     Lat_Maastricht      
    5     Lat_DenHelder       
    6     Lat_Twente          
    7     Lat_Eindhoven       
    8     Lat_Rotterdam       
    9     Boundary Flow       
   10     Noordzee            
   11     Lat_DeBilt          
   12     Lat_Amsterdam       
   13     Lat_Groningen       
   14     Lat_Leeuwarden      
   15     Lat_RWZI            
   16     Lat_OtherER         
   17     Lat_Precipitation   
   18     Lat_Other           
   19     Brabant             
   20     Schelde             
   21     PL_Grevelingen      
   22     PL_OosterSchelde    
   23     PL_WesterSchelde    
   24     NoordzeeWS          
   25     Evaporation         
   26     Neerslag            
   27     KanGentTern         
   28     kwel                
   29     sluis               
   30     industrie           
   31     Rnld                
   32     HHNK                
   33     Groot Mijdrecht     
   34     Bijlmer             
   35     Horstermeer         
   36     HolendrechtBullewijk
   37     HDSR                
   38     AGV                 
   39     Asd (boezemland)    
   40     IJmuiden            
   41     DuivendrMiddelpold  

 Closing file: ..\work\substanc.fra                                                          

 Continuing on file: delwaq.inp                                                                    

 *********************************************************** B L O C K - 1 *****


 Including file: \SOB21204\LSM0_9D.LIT\WORK\DELWAQ1.INP                                                                                                                                                                                                                                                                                                                                                                                                                                                                                                                                                                                                                                                                                                                                                                                                                                                                                                                                                                                                  


 Factor between two clocks :       86400
 System clock in date-format  DDHHMMSS 
 Auxiliary timer in date-format DDHHMMSS 

 The auxiliary timer is not equal to the system timer.
 All the process fluxes will be scaled from the auxiliary timer to the system timer.

 Integration option :               15.70
 Start of simulation : 0Y-  0D- 0H- 0M- 0S.
 End of simulation   : 0Y-  2D- 0H- 0M- 0S.
 Selected option for time step size :  0
 Integration time stepsize is : 0Y-  0D- 0H- 5M- 0S.

 Closing file: \SOB21204\LSM0_9D.LIT\WORK\DELWAQ1.INP                                        

 Continuing on file: delwaq.inp                                                                    

 Dump areas:
 option selected for input : 1
 Information from the standard input file.

 Including file: \SOB21204\LSM0_9D.LIT\1\OUTLOCWQ.DAT                                                                                                                                                                                                                                                                                                                                                                                                                                                                                                                                                                                                                                                                                                                                                                                                                                                                                                                                                                                                    

 Including file: ..\work\monitor.dat                                                                                                                                                                                                                                                                                                                                                                                                                                                                                                                                                                                                                                                                                                                                                                                                                                                                                                                                                                                                                     

 Number of dump areas :  546

 Dump area :    1 : WQ_BOSDOLMAN        
 Number of segments in area :              1
          number   segment
              1             34

 Dump area :    2 : NDB_28_200          
 Number of segments in area :              1
          number   segment
              1             68

 Dump area :    3 : WQ_ATM              
 Number of segments in area :              1
          number   segment
              1            173

 Dump area :    4 : WQ_EONMAAS          
 Number of segments in area :              1
          number   segment
              1            324

 Dump area :    5 : MS_002_0            
 Number of segments in area :              1
          number   segment
              1            383

 Dump area :    6 : MS_008_0            
 Number of segments in area :              1
          number   segment
              1            444

 Dump area :    7 : MS_010_0            
 Number of segments in area :              1
          number   segment
              1            495

 Dump area :    8 : MS_016_0            
 Number of segments in area :              1
          number   segment
              1            590

 Dump area :    9 : MS_022_0            
 Number of segments in area :              1
          number   segment
              1            681

 Dump area :   10 : RT_001_0            
 Number of segments in area :              1
          number   segment
              1            715

 Dump area :   11 : RT_006_0            
 Number of segments in area :              1
          number   segment
              1            820

 Dump area :   12 : ARK_0_25            
 Number of segments in area :              1
          number   segment
              1            901

 Dump area :   13 : WQ_AVRNV NWATERWEG  
 Number of segments in area :              1
          number   segment
              1             10

 Dump area :   14 : WQ_TIOFINE          
 Number of segments in area :              1
          number   segment
              1             11

 Dump area :   15 : WQ_AVRNV  LAUREN    
 Number of segments in area :              1
          number   segment
              1             13

 Dump area :   16 : WQ_ODFJELL          
 Number of segments in area :              1
          number   segment
              1             19

 Dump area :   17 : WQ_ROMI             
 Number of segments in area :              1
          number   segment
              1             27

 Dump area :   18 : WQ_EONGALILEI       
 Number of segments in area :              1
          number   segment
              1             39

 Dump area :   19 : WQ_ROTEBKW          
 Number of segments in area :              1
          number   segment
              1             47

 Dump area :   20 : WQ_UNICHEMA         
 Number of segments in area :              1
          number   segment
              1             72

 Dump area :   21 : WQ_AQUALON          
 Number of segments in area :              1
          number   segment
              1             86

 Dump area :   22 : WQ_GROOTINT         
 Number of segments in area :              1
          number   segment
              1             86

 Dump area :   23 : WQ_SUIKERUNIE       
 Number of segments in area :              1
          number   segment
              1             90

 Dump area :   24 : WQ_UNIMILLS         
 Number of segments in area :              1
          number   segment
              1            109

 Dump area :   25 : WQ_SVIMOE           
 Number of segments in area :              1
          number   segment
              1            180

 Dump area :   26 : WQ_SHELLMOERDIJK    
 Number of segments in area :              1
          number   segment
              1            183

 Dump area :   27 : WQ_EXXONCHEMICAL    
 Number of segments in area :              1
          number   segment
              1            313

 Dump area :   28 : WQ_HUNTSMAN         
 Number of segments in area :              1
          number   segment
              1            320

 Dump area :   29 : MS_003_410          
 Number of segments in area :              1
          number   segment
              1            391

 Dump area :   30 : MS_004_4399         
 Number of segments in area :              1
          number   segment
              1           1753

 Dump area :   31 : MS_004_18696        
 Number of segments in area :              1
          number   segment
              1           1781

 Dump area :   32 : WQ_SABIC            
 Number of segments in area :              1
          number   segment
              1           1785

 Dump area :   33 : MS_004_26395        
 Number of segments in area :              1
          number   segment
              1           1797

 Dump area :   34 : MS_005_5593         
 Number of segments in area :              1
          number   segment
              1            406

 Dump area :   35 : MS_008_2596         
 Number of segments in area :              1
          number   segment
              1            450

 Dump area :   36 : WQ_NUONBUGGE        
 Number of segments in area :              1
          number   segment
              1            495

 Dump area :   37 : MS_010_13925        
 Number of segments in area :              1
          number   segment
              1          18995

 Dump area :   38 : MS_013_12750        
 Number of segments in area :              1
          number   segment
              1          18728

 Dump area :   39 : MS_013_15518        
 Number of segments in area :              1
          number   segment
              1          18735

 Dump area :   40 : MS_016_10929        
 Number of segments in area :              1
          number   segment
              1          17872

 Dump area :   41 : 224                 
 Number of segments in area :              1
          number   segment
              1            764

 Dump area :   42 : RT_005_6521         
 Number of segments in area :              1
          number   segment
              1            787

 Dump area :   43 : WQ_NORSKE           
 Number of segments in area :              1
          number   segment
              1            811

 Dump area :   44 : RT_005_27103        
 Number of segments in area :              1
          number   segment
              1           1885

 Dump area :   45 : RT_005_36143        
 Number of segments in area :              1
          number   segment
              1          14825

 Dump area :   46 : RT_005_36413        
 Number of segments in area :              1
          number   segment
              1          14825

 Dump area :   47 : RT_006_8399         
 Number of segments in area :              1
          number   segment
              1            837

 Dump area :   48 : WQ_KLEEFSE          
 Number of segments in area :              1
          number   segment
              1            865

 Dump area :   49 : RT_008_5041         
 Number of segments in area :              1
          number   segment
              1            872

 Dump area :   50 : HN_324              
 Number of segments in area :              1
          number   segment
              1           7169

 Dump area :   51 : YSV_P_47_9999900000 
 Number of segments in area :              1
          number   segment
              1           1191

 Dump area :   52 : YSV_P_19_350        
 Number of segments in area :              1
          number   segment
              1           1043

 Dump area :   53 : YSV_P_20_6950       
 Number of segments in area :              1
          number   segment
              1           1064

 Dump area :   54 : YSV_P_21_6590       
 Number of segments in area :              1
          number   segment
              1           1079

 Dump area :   55 : YSV_P_22_6390       
 Number of segments in area :              1
          number   segment
              1           1094

 Dump area :   56 : YSV_P_24_3390       
 Number of segments in area :              1
          number   segment
              1           1121

 Dump area :   57 : YSV_P_24_13590      
 Number of segments in area :              1
          number   segment
              1           1143

 Dump area :   58 : YSV_P_23389_500     
 Number of segments in area :              1
          number   segment
              1           1261

 Dump area :   59 : YSV_P_40506_0       
 Number of segments in area :              1
          number   segment
              1           1581

 Dump area :   60 : WQ_HARCULO          
 Number of segments in area :              1
          number   segment
              1           1298

 Dump area :   61 : YSV_P_P_19_10000    
 Number of segments in area :              1
          number   segment
              1           1373

 Dump area :   62 : YSV_5581983_500     
 Number of segments in area :              1
          number   segment
              1           1496

 Dump area :   63 : RND_34_1400         
 Number of segments in area :              1
          number   segment
              1           1545

 Dump area :   64 : ZZ_113              
 Number of segments in area :              1
          number   segment
              1           1594

 Dump area :   65 : RND_55_1540         
 Number of segments in area :              1
          number   segment
              1           1564

 Dump area :   66 : WQ_CLAUSCENTRALE    
 Number of segments in area :              1
          number   segment
              1            443

 Dump area :   67 : MS_010_16703        
 Number of segments in area :              1
          number   segment
              1          19002

 Dump area :   68 : MS_004_29694        
 Number of segments in area :              1
          number   segment
              1           1803

 Dump area :   69 : WQ_DIEMEN IJMEER    
 Number of segments in area :              1
          number   segment
              1           1033

 Dump area :   70 : MS_008_11959        
 Number of segments in area :              1
          number   segment
              1            468

 Dump area :   71 : WQ_SAPPI            
 Number of segments in area :              1
          number   segment
              1            389

 Dump area :   72 : ARK_5146_1550       
 Number of segments in area :              1
          number   segment
              1            905

 Dump area :   73 : MAK_39_8000         
 Number of segments in area :              1
          number   segment
              1            934

 Dump area :   74 : WQ_NLGASUNI         
 Number of segments in area :              1
          number   segment
              1            374

 Dump area :   75 : Onl_MeasStatVroomsho
 Number of segments in area :              1
          number   segment
              1           2035

 Dump area :   76 : Onl_MeasStatOranjeka
 Number of segments in area :              1
          number   segment
              1           1643

 Dump area :   77 : MS_015_4500         
 Number of segments in area :              1
          number   segment
              1            589

 Dump area :   78 : WQ_CARMARGARINE     
 Number of segments in area :              1
          number   segment
              1             13

 Dump area :   79 : WQ_AkzoNobel_Z      
 Number of segments in area :              1
          number   segment
              1             16

 Dump area :   80 : WQ_SHINPER          
 Number of segments in area :              1
          number   segment
              1             16

 Dump area :   81 : WQ_AkzoNobel_N      
 Number of segments in area :              1
          number   segment
              1             16

 Dump area :   82 : WQ_DSMSPECIAL       
 Number of segments in area :              1
          number   segment
              1             18

 Dump area :   83 : WQ_ATOFINA          
 Number of segments in area :              1
          number   segment
              1             23

 Dump area :   84 : WQ_SHELLPERNIS RAFF1
 Number of segments in area :              1
          number   segment
              1             25

 Dump area :   85 : WQ_SNR SNC          
 Number of segments in area :              1
          number   segment
              1             25

 Dump area :   86 : WQ_RESOPER          
 Number of segments in area :              1
          number   segment
              1             25

 Dump area :   87 : WQ_SHEELPERNIS RAFF2
 Number of segments in area :              1
          number   segment
              1             31

 Dump area :   88 : WQ_RECV             
 Number of segments in area :              1
          number   segment
              1             32

 Dump area :   89 : WQ_HUNDOUGLAS       
 Number of segments in area :              1
          number   segment
              1             58

 Dump area :   90 : WQ_CORUSTUBES       
 Number of segments in area :              1
          number   segment
              1            105

 Dump area :   91 : WQ_WKCMOERDIJK      
 Number of segments in area :              1
          number   segment
              1            180

 Dump area :   92 : MS_002_4038         
 Number of segments in area :              1
          number   segment
              1            390

 Dump area :   93 : Onl_MeasStatZWLM-Nrd
 Number of segments in area :              1
          number   segment
              1           1681

 Dump area :   94 : MS_GwdbZWLMsl13     
 Number of segments in area :              1
          number   segment
              1           1708

 Dump area :   95 : 751                 
 Number of segments in area :              1
          number   segment
              1          17838

 Dump area :   96 : RW_180              
 Number of segments in area :              1
          number   segment
              1          18126

 Dump area :   97 : RV_Pannerdensch_Kana
 Number of segments in area :              1
          number   segment
              1          14396

 Dump area :   98 : WQ_KAPPA ROERMOND   
 Number of segments in area :              1
          number   segment
              1            472

 Dump area :   99 : Onl_MeasStatCoevorde
 Number of segments in area :              1
          number   segment
              1          14543

 Dump area :  100 : WQ_EZHROCA          
 Number of segments in area :              1
          number   segment
              1           2905

 Dump area :  101 : WQ_AIRPROD          
 Number of segments in area :              1
          number   segment
              1             16

 Dump area :  102 : WQ_CARBLANE         
 Number of segments in area :              1
          number   segment
              1             17

 Dump area :  103 : WQ_HOEKLOOS         
 Number of segments in area :              1
          number   segment
              1             18

 Dump area :  104 : WQ_CABOT            
 Number of segments in area :              1
          number   segment
              1             18

 Dump area :  105 : WQ_SHELLPERNIS CH1  
 Number of segments in area :              1
          number   segment
              1             25

 Dump area :  106 : WQ_HIWA             
 Number of segments in area :              1
          number   segment
              1             45

 Dump area :  107 : WQ_UNILEVER         
 Number of segments in area :              1
          number   segment
              1           3092

 Dump area :  108 : WQ_AIRPRPERNIS      
 Number of segments in area :              1
          number   segment
              1             76

 Dump area :  109 : WQ_AZN              
 Number of segments in area :              1
          number   segment
              1            180

 Dump area :  110 : WQ_FUNDIA           
 Number of segments in area :              1
          number   segment
              1            265

 Dump area :  111 : WQ_KUWAITOIL        
 Number of segments in area :              1
          number   segment
              1            315

 Dump area :  112 : WQ_ENCI             
 Number of segments in area :              1
          number   segment
              1          19027

 Dump area :  113 : MS_002_4039         
 Number of segments in area :              1
          number   segment
              1            390

 Dump area :  114 : MS_006_33262        
 Number of segments in area :              1
          number   segment
              1            439

 Dump area :  115 : MS_014_10571        
 Number of segments in area :              1
          number   segment
              1            577

 Dump area :  116 : MS_016_34249        
 Number of segments in area :              1
          number   segment
              1          17918

 Dump area :  117 : WQ_GELDERLAND       
 Number of segments in area :              1
          number   segment
              1            762

 Dump area :  118 : WQ_NESTLE           
 Number of segments in area :              1
          number   segment
              1          14489

 Dump area :  119 : 754                 
 Number of segments in area :              1
          number   segment
              1          17859

 Dump area :  120 : 755                 
 Number of segments in area :              1
          number   segment
              1          17861

 Dump area :  121 : WQ_EPZAMER          
 Number of segments in area :              1
          number   segment
              1           1825

 Dump area :  122 : WQ_EDONGLE          
 Number of segments in area :              1
          number   segment
              1           1826

 Dump area :  123 : WQ_SHINBOT          
 Number of segments in area :              1
          number   segment
              1             26

 Dump area :  124 : WQ_SHELLPERNIS CH2  
 Number of segments in area :              1
          number   segment
              1             32

 Dump area :  125 : MS_016_36257        
 Number of segments in area :              1
          number   segment
              1          17923

 Dump area :  126 : Onl_MeasStatBelgie  
 Number of segments in area :              1
          number   segment
              1           1694

 Dump area :  127 : RV_30               
 Number of segments in area :              1
          number   segment
              1          14188

 Dump area :  128 : SRW_179             
 Number of segments in area :              1
          number   segment
              1          13807

 Dump area :  129 : COE_Meetpunt Drentse
 Number of segments in area :              1
          number   segment
              1          14519

 Dump area :  130 : SRO_MS_Ben_Weertslui
 Number of segments in area :              1
          number   segment
              1          13697

 Dump area :  131 : HN_323              
 Number of segments in area :              1
          number   segment
              1           1315

 Dump area :  132 : Eefde_aflaatwerk_nie
 Number of segments in area :              1
          number   segment
              1           2159

 Dump area :  133 : Eefde_aflaatwerk_oud
 Number of segments in area :              1
          number   segment
              1           2136

 Dump area :  134 : Eefde_pompen_boven  
 Number of segments in area :              1
          number   segment
              1           2132

 Dump area :  135 : Delden_pompen_boven 
 Number of segments in area :              1
          number   segment
              1           2134

 Dump area :  136 : Hengelo_pompen_boven
 Number of segments in area :              1
          number   segment
              1           2135

 Dump area :  137 : Delden_aflaatwerk_de
 Number of segments in area :              1
          number   segment
              1           2153

 Dump area :  138 : Hengelo_dynamisch_bo
 Number of segments in area :              1
          number   segment
              1           2162

 Dump area :  139 : ZW_Kal_Lodijkse Gat 
 Number of segments in area :              1
          number   segment
              1           2376

 Dump area :  140 : ZW_Grevelingen      
 Number of segments in area :              1
          number   segment
              1           2435

 Dump area :  141 : ZW_M_BathSpui_Up    
 Number of segments in area :              1
          number   segment
              1           2483

 Dump area :  142 : ZW_Kal_Steenbergen  
 Number of segments in area :              1
          number   segment
              1           2221

 Dump area :  143 : ZW_Kal_Hammen Oost  
 Number of segments in area :              1
          number   segment
              1           2308

 Dump area :  144 : ZW_Kal_Wissenkerke  
 Number of segments in area :              1
          number   segment
              1           2292

 Dump area :  145 : ZW_Grevelingen_BrSl 
 Number of segments in area :              1
          number   segment
              1           2471

 Dump area :  146 : ZW_Grevelingen_Oost 
 Number of segments in area :              1
          number   segment
              1           2413

 Dump area :  147 : ZW_VoorD_Grevelingen
 Number of segments in area :              1
          number   segment
              1           2418

 Dump area :  148 : VMM_ZandkreeksluisBu
 Number of segments in area :              1
          number   segment
              1           8480

 Dump area :  149 : ZW_Kal_Zijpe        
 Number of segments in area :              1
          number   segment
              1           2358

 Dump area :  150 : ZW_Kal_Dreischor    
 Number of segments in area :              1
          number   segment
              1           2441

 Dump area :  151 : ZW_Kal_HansweertGeul
 Number of segments in area :              1
          number   segment
              1           2776

 Dump area :  152 : ZW_Kal_Terneuzen    
 Number of segments in area :              1
          number   segment
              1           2651

 Dump area :  153 : ZW_Kal_Schaar       
 Number of segments in area :              1
          number   segment
              1           2519

 Dump area :  154 : ZW_Kal_Vlissingen   
 Number of segments in area :              1
          number   segment
              1           2624

 Dump area :  155 : ZW_Kal_Zoommeer     
 Number of segments in area :              1
          number   segment
              1           2235

 Dump area :  156 : 394                 
 Number of segments in area :              1
          number   segment
              1           2885

 Dump area :  157 : WN_M_WijkbDuurst_RWS
 Number of segments in area :              1
          number   segment
              1           5665

 Dump area :  158 : SL_RB_DeBonk        
 Number of segments in area :              1
          number   segment
              1           2934

 Dump area :  159 : SL_RB_Viersprong    
 Number of segments in area :              1
          number   segment
              1           2938

 Dump area :  160 : SL_RB_Peil Maas     
 Number of segments in area :              1
          number   segment
              1           2972

 Dump area :  161 : SL_9                
 Number of segments in area :              1
          number   segment
              1           3079

 Dump area :  162 : DL_Meetstation Delft
 Number of segments in area :              1
          number   segment
              1           7219

 Dump area :  163 : RL_Nieuwe_Wetering  
 Number of segments in area :              1
          number   segment
              1           3883

 Dump area :  164 : WN_M_AMS002         
 Number of segments in area :              1
          number   segment
              1           5555

 Dump area :  165 : WN_M_GWV014         
 Number of segments in area :              1
          number   segment
              1           5104

 Dump area :  166 : WN_M_PGM020         
 Number of segments in area :              1
          number   segment
              1           5107

 Dump area :  167 : WN_M_GHC003         
 Number of segments in area :              1
          number   segment
              1           5121

 Dump area :  168 : WN_M_GHC002         
 Number of segments in area :              1
          number   segment
              1           5125

 Dump area :  169 : DL_M7               
 Number of segments in area :              1
          number   segment
              1           7305

 Dump area :  170 : WN_M_GWV018         
 Number of segments in area :              1
          number   segment
              1           5134

 Dump area :  171 : WN_M_HNV002         
 Number of segments in area :              1
          number   segment
              1           5436

 Dump area :  172 : WN_M_GWV015         
 Number of segments in area :              1
          number   segment
              1           5437

 Dump area :  173 : DL_M2               
 Number of segments in area :              1
          number   segment
              1           7375

 Dump area :  174 : WN_M_OUW002         
 Number of segments in area :              1
          number   segment
              1           4627

 Dump area :  175 : WN_M_OUW001         
 Number of segments in area :              1
          number   segment
              1           4634

 Dump area :  176 : WN_M_AMS016         
 Number of segments in area :              1
          number   segment
              1           4639

 Dump area :  177 : WN_M_AMS003         
 Number of segments in area :              1
          number   segment
              1           4767

 Dump area :  178 : WN_M_ADM056         
 Number of segments in area :              1
          number   segment
              1           4859

 Dump area :  179 : WN_M_ADM057         
 Number of segments in area :              1
          number   segment
              1           4679

 Dump area :  180 : WN_M_ADM004         
 Number of segments in area :              1
          number   segment
              1           4689

 Dump area :  181 : WN_M_ADM034         
 Number of segments in area :              1
          number   segment
              1           4890

 Dump area :  182 : WN_M_ADM032         
 Number of segments in area :              1
          number   segment
              1           4891

 Dump area :  183 : WN_M_WTV002         
 Number of segments in area :              1
          number   segment
              1           4775

 Dump area :  184 : WN_M_ADMrnrVinklskd 
 Number of segments in area :              1
          number   segment
              1           4896

 Dump area :  185 : DL_M8               
 Number of segments in area :              1
          number   segment
              1           7488

 Dump area :  186 : WN_M_ADM012         
 Number of segments in area :              1
          number   segment
              1           5039

 Dump area :  187 : WN_M_ADMstadionkd   
 Number of segments in area :              1
          number   segment
              1           5045

 Dump area :  188 : WN_M_ANG003         
 Number of segments in area :              1
          number   segment
              1           4640

 Dump area :  189 : WN_M_KVV001         
 Number of segments in area :              1
          number   segment
              1           5050

 Dump area :  190 : WN_M_BUS037         
 Number of segments in area :              1
          number   segment
              1           4721

 Dump area :  191 : WN_M_ADMsinglgDNB   
 Number of segments in area :              1
          number   segment
              1           4839

 Dump area :  192 : WN_M_KMU002         
 Number of segments in area :              1
          number   segment
              1           5096

 Dump area :  193 : WN_M_Asd_km25_RWS   
 Number of segments in area :              1
          number   segment
              1           4962

 Dump area :  194 : WN_M_ADM003         
 Number of segments in area :              1
          number   segment
              1           5173

 Dump area :  195 : WN_MK_Zeeburg1      
 Number of segments in area :              1
          number   segment
              1           5185

 Dump area :  196 : WN_M_Schellingw_RWS 
 Number of segments in area :              1
          number   segment
              1           5190

 Dump area :  197 : WN_M_KVVhoutmankd   
 Number of segments in area :              1
          number   segment
              1           5224

 Dump area :  198 : WN_M_Westzn13_RWS   
 Number of segments in area :              1
          number   segment
              1           5325

 Dump area :  199 : WN_M_VEC009         
 Number of segments in area :              1
          number   segment
              1           5696

 Dump area :  200 : WN_MK_Zeeburg2      
 Number of segments in area :              1
          number   segment
              1           5787

 Dump area :  201 : WN_M_KMU003         
 Number of segments in area :              1
          number   segment
              1           5790

 Dump area :  202 : WN_M_IJm_NrdrslsO_RW
 Number of segments in area :              1
          number   segment
              1           5839

 Dump area :  203 : WN_M_WAV001         
 Number of segments in area :              1
          number   segment
              1           5614

 Dump area :  204 : WN_M_GWV006         
 Number of segments in area :              1
          number   segment
              1           5457

 Dump area :  205 : WN_M_ANG006         
 Number of segments in area :              1
          number   segment
              1           4641

 Dump area :  206 : WN_M_BUL001         
 Number of segments in area :              1
          number   segment
              1           5604

 Dump area :  207 : WN_M_WIN001         
 Number of segments in area :              1
          number   segment
              1           5624

 Dump area :  208 : WN_M_GRV001         
 Number of segments in area :              1
          number   segment
              1           5719

 Dump area :  209 : WN_M_AMS008         
 Number of segments in area :              1
          number   segment
              1           5577

 Dump area :  210 : WN_M_AMS014         
 Number of segments in area :              1
          number   segment
              1           5584

 Dump area :  211 : WN_M_AMS010         
 Number of segments in area :              1
          number   segment
              1           5586

 Dump area :  212 : WN_M_HOD001         
 Number of segments in area :              1
          number   segment
              1           5745

 Dump area :  213 : WN_M_HOD003         
 Number of segments in area :              1
          number   segment
              1           5748

 Dump area :  214 : WN_M_VEC014         
 Number of segments in area :              1
          number   segment
              1           5494

 Dump area :  215 : WN_M_VEC001         
 Number of segments in area :              1
          number   segment
              1           5504

 Dump area :  216 : WN_M_VEC015         
 Number of segments in area :              1
          number   segment
              1           5507

 Dump area :  217 : WN_M_VEC002         
 Number of segments in area :              1
          number   segment
              1           5509

 Dump area :  218 : WN_M_GEI002         
 Number of segments in area :              1
          number   segment
              1           4748

 Dump area :  219 : WN_M_GEI004         
 Number of segments in area :              1
          number   segment
              1           4750

 Dump area :  220 : WN_M_ANG002         
 Number of segments in area :              1
          number   segment
              1           4761

 Dump area :  221 : WN_M_ANG004         
 Number of segments in area :              1
          number   segment
              1           4763

 Dump area :  222 : WN_M_VEC016         
 Number of segments in area :              1
          number   segment
              1           5523

 Dump area :  223 : WN_M_ANG001         
 Number of segments in area :              1
          number   segment
              1           4648

 Dump area :  224 : WN_M_GWV040         
 Number of segments in area :              1
          number   segment
              1           4917

 Dump area :  225 : WN_M_ANG005         
 Number of segments in area :              1
          number   segment
              1           4658

 Dump area :  226 : DL_M3               
 Number of segments in area :              1
          number   segment
              1           7583

 Dump area :  227 : WN_M_KMS003         
 Number of segments in area :              1
          number   segment
              1           4726

 Dump area :  228 : WN_M_NTV002         
 Number of segments in area :              1
          number   segment
              1           5710

 Dump area :  229 : WN_M_ZAV005         
 Number of segments in area :              1
          number   segment
              1           4665

 Dump area :  230 : WN_M_VEC008         
 Number of segments in area :              1
          number   segment
              1           5687

 Dump area :  231 : WN_M_HNV001         
 Number of segments in area :              1
          number   segment
              1           5482

 Dump area :  232 : WN_M_GEU001         
 Number of segments in area :              1
          number   segment
              1           5135

 Dump area :  233 : WN_M_KMU007         
 Number of segments in area :              1
          number   segment
              1           5544

 Dump area :  234 : WN_M_AmerhvnZ_RWS   
 Number of segments in area :              1
          number   segment
              1           5310

 Dump area :  235 : WN_M_Zaand18_RWS    
 Number of segments in area :              1
          number   segment
              1           5304

 Dump area :  236 : WN_M_ZijkanG_RWS    
 Number of segments in area :              1
          number   segment
              1           5360

 Dump area :  237 : WN_M_GEI001         
 Number of segments in area :              1
          number   segment
              1           4753

 Dump area :  238 : WN_M_KMU006         
 Number of segments in area :              1
          number   segment
              1           5549

 Dump area :  239 : WN_M_GWV012         
 Number of segments in area :              1
          number   segment
              1           5799

 Dump area :  240 : WN_M_AMS005         
 Number of segments in area :              1
          number   segment
              1           5567

 Dump area :  241 : WN_M_KMU001         
 Number of segments in area :              1
          number   segment
              1           5862

 Dump area :  242 : WN_M_ZAV007         
 Number of segments in area :              1
          number   segment
              1           4666

 Dump area :  243 : WN_M_GWV011         
 Number of segments in area :              1
          number   segment
              1           5844

 Dump area :  244 : WN_M_GAA001         
 Number of segments in area :              1
          number   segment
              1           5755

 Dump area :  245 : WN_M_GWV034         
 Number of segments in area :              1
          number   segment
              1           5818

 Dump area :  246 : WN_M_ADMkrtPrinsngr 
 Number of segments in area :              1
          number   segment
              1           4817

 Dump area :  247 : WN_M_BIN002         
 Number of segments in area :              1
          number   segment
              1           4672

 Dump area :  248 : WN_M_BIN004         
 Number of segments in area :              1
          number   segment
              1           4674

 Dump area :  249 : WN_M_VEC013         
 Number of segments in area :              1
          number   segment
              1           5528

 Dump area :  250 : WN_M_VEC012         
 Number of segments in area :              1
          number   segment
              1           5163

 Dump area :  251 : WN_M_ADM033         
 Number of segments in area :              1
          number   segment
              1           4858

 Dump area :  252 : WN_M_AMS021         
 Number of segments in area :              1
          number   segment
              1           5857

 Dump area :  253 : WN_M_BUS005         
 Number of segments in area :              1
          number   segment
              1           4675

 Dump area :  254 : WN_M_ADM010         
 Number of segments in area :              1
          number   segment
              1           5075

 Dump area :  255 : WN_M_VEC011         
 Number of segments in area :              1
          number   segment
              1           5396

 Dump area :  256 : WN_M_WeespARK_RWS   
 Number of segments in area :              1
          number   segment
              1           4715

 Dump area :  257 : WN_M_BUS038         
 Number of segments in area :              1
          number   segment
              1           4721

 Dump area :  258 : WN_M_ADMentrpdoksls 
 Number of segments in area :              1
          number   segment
              1           4878

 Dump area :  259 : WN_M_ADM001         
 Number of segments in area :              1
          number   segment
              1           4881

 Dump area :  260 : WN_M_ADM022         
 Number of segments in area :              1
          number   segment
              1           5007

 Dump area :  261 : WN_M_ADM023         
 Number of segments in area :              1
          number   segment
              1           5015

 Dump area :  262 : WN_M_ADM016         
 Number of segments in area :              1
          number   segment
              1           5019

 Dump area :  263 : WN_M_AMS011         
 Number of segments in area :              1
          number   segment
              1           5025

 Dump area :  264 : WN_M_ADM011         
 Number of segments in area :              1
          number   segment
              1           5067

 Dump area :  265 : WN_M_Nieuwendm_RWS  
 Number of segments in area :              1
          number   segment
              1           5467

 Dump area :  266 : WN_M_OranjslsOst_RWS
 Number of segments in area :              1
          number   segment
              1           5292

 Dump area :  267 : WN_M_KMS002         
 Number of segments in area :              1
          number   segment
              1           4733

 Dump area :  268 : WN_MK_Uitermeer     
 Number of segments in area :              1
          number   segment
              1           4734

 Dump area :  269 : WN_M_GAA002         
 Number of segments in area :              1
          number   segment
              1           4740

 Dump area :  270 : WN_M_Maarssen_RWS   
 Number of segments in area :              1
          number   segment
              1           5385

 Dump area :  271 : WN_M_Loenen_RWS     
 Number of segments in area :              1
          number   segment
              1           5636

 Dump area :  272 : WN_M_GWV009         
 Number of segments in area :              1
          number   segment
              1           4920

 Dump area :  273 : WN_M_ZAV004         
 Number of segments in area :              1
          number   segment
              1           5261

 Dump area :  274 : WN_M_ZAV003         
 Number of segments in area :              1
          number   segment
              1           5263

 Dump area :  275 : WN_M_ZAV002         
 Number of segments in area :              1
          number   segment
              1           5265

 Dump area :  276 : WN_M_ZAV008         
 Number of segments in area :              1
          number   segment
              1           5267

 Dump area :  277 : WN_M_ZAV006         
 Number of segments in area :              1
          number   segment
              1           5269

 Dump area :  278 : WN_M_KVVjvGalenstr  
 Number of segments in area :              1
          number   segment
              1           5458

 Dump area :  279 : WN_M_NTV001         
 Number of segments in area :              1
          number   segment
              1           4736

 Dump area :  280 : WN_MK_Zeeburg3      
 Number of segments in area :              1
          number   segment
              1           5774

 Dump area :  281 : WN_M_Muidehvn_RWS   
 Number of segments in area :              1
          number   segment
              1           4662

 Dump area :  282 : WN_M_ADMjzfIsraelkd 
 Number of segments in area :              1
          number   segment
              1           4904

 Dump area :  283 : WN_M_VEC007         
 Number of segments in area :              1
          number   segment
              1           5291

 Dump area :  284 : WN_M_ADM039         
 Number of segments in area :              1
          number   segment
              1           5300

 Dump area :  285 : WN_M_Buihvn4_RWS    
 Number of segments in area :              1
          number   segment
              1           5836

 Dump area :  286 : WN_M_IJm_NrdrslsW_RW
 Number of segments in area :              1
          number   segment
              1           5822

 Dump area :  287 : WN_M_IJmui_binn_RWS 
 Number of segments in area :              1
          number   segment
              1           4936

 Dump area :  288 : WN_M_ADMsinglgWbaut 
 Number of segments in area :              1
          number   segment
              1           4983

 Dump area :  289 : WN_M_WeespVecht_RWS 
 Number of segments in area :              1
          number   segment
              1           5284

 Dump area :  290 : WN_M_NTV003         
 Number of segments in area :              1
          number   segment
              1           5715

 Dump area :  291 : WN_M_BUS042         
 Number of segments in area :              1
          number   segment
              1           5488

 Dump area :  292 : WN_M_VEC004         
 Number of segments in area :              1
          number   segment
              1           5517

 Dump area :  293 : WN_M_Buitenhz_RWS   
 Number of segments in area :              1
          number   segment
              1           5324

 Dump area :  294 : WN_M_ZijkanH_RWS    
 Number of segments in area :              1
          number   segment
              1           5364

 Dump area :  295 : WN_M_ZijkanA_RWS    
 Number of segments in area :              1
          number   segment
              1           5380

 Dump area :  296 : WN_M_NTV005         
 Number of segments in area :              1
          number   segment
              1           5716

 Dump area :  297 : WN_M_NTV006         
 Number of segments in area :              1
          number   segment
              1           5717

 Dump area :  298 : WN_M_GRV002         
 Number of segments in area :              1
          number   segment
              1           5725

 Dump area :  299 : WN_M_Muiden_RWS     
 Number of segments in area :              1
          number   segment
              1           5834

 Dump area :  300 : WN_M_Schellingwbr_RW
 Number of segments in area :              1
          number   segment
              1           7189

 Dump area :  301 : WN_M_Surinamekd_RWS 
 Number of segments in area :              1
          number   segment
              1           5469

 Dump area :  302 : WN_MK_Vinkeveen     
 Number of segments in area :              1
          number   segment
              1           5803

 Dump area :  303 : WN_MK_StBeer        
 Number of segments in area :              1
          number   segment
              1           5706

 Dump area :  304 : WN_M_ZijkanC_RWS    
 Number of segments in area :              1
          number   segment
              1           5765

 Dump area :  305 : WN_M_OranjslsWst_RWS
 Number of segments in area :              1
          number   segment
              1           7190

 Dump area :  306 : WN_M_Buihvn3_RWS    
 Number of segments in area :              1
          number   segment
              1           5838

 Dump area :  307 : WN_M_Buihvn5_RWS    
 Number of segments in area :              1
          number   segment
              1           5842

 Dump area :  308 : HN_CF_M3            
 Number of segments in area :              1
          number   segment
              1           6582

 Dump area :  309 : DL_M6               
 Number of segments in area :              1
          number   segment
              1           7624

 Dump area :  310 : DL_Meetstation Broek
 Number of segments in area :              1
          number   segment
              1           7762

 Dump area :  311 : DL_M4               
 Number of segments in area :              1
          number   segment
              1           7743

 Dump area :  312 : DL_Meetstation Nieuw
 Number of segments in area :              1
          number   segment
              1           7775

 Dump area :  313 : DL_M5               
 Number of segments in area :              1
          number   segment
              1           8180

 Dump area :  314 : DL_Meetstation Zweth
 Number of segments in area :              1
          number   segment
              1           8231

 Dump area :  315 : HN_MS2              
 Number of segments in area :              1
          number   segment
              1           5998

 Dump area :  316 : HN_CF_M05           
 Number of segments in area :              1
          number   segment
              1           7118

 Dump area :  317 : HN_MS1              
 Number of segments in area :              1
          number   segment
              1           6333

 Dump area :  318 : DL_M1               
 Number of segments in area :              1
          number   segment
              1           7939

 Dump area :  319 : HN_MS_MN            
 Number of segments in area :              1
          number   segment
              1           6695

 Dump area :  320 : HN_CF_S-GGa         
 Number of segments in area :              1
          number   segment
              1           6874

 Dump area :  321 : HN_CF_M04           
 Number of segments in area :              1
          number   segment
              1           6035

 Dump area :  322 : KW_36               
 Number of segments in area :              1
          number   segment
              1           8420

 Dump area :  323 : KW_35               
 Number of segments in area :              1
          number   segment
              1           8439

 Dump area :  324 : KW_34               
 Number of segments in area :              1
          number   segment
              1           8455

 Dump area :  325 : VMMeas_Vlis         
 Number of segments in area :              1
          number   segment
              1           8573

 Dump area :  326 : VMMeas_Veerse       
 Number of segments in area :              1
          number   segment
              1           8495

 Dump area :  327 : VMMeas_Boreel       
 Number of segments in area :              1
          number   segment
              1           8589

 Dump area :  328 : VMDummyMeas         
 Number of segments in area :              1
          number   segment
              1           8584

 Dump area :  329 : VMM_ZandkreeksluisBi
 Number of segments in area :              1
          number   segment
              1           8565

 Dump area :  330 : NZ_mGAARKEUKEN_BOV  
 Number of segments in area :              1
          number   segment
              1           8608

 Dump area :  331 : FR_boezempeil       
 Number of segments in area :              1
          number   segment
              1           9715

 Dump area :  332 : NZ_mKSL19           
 Number of segments in area :              1
          number   segment
              1          10885

 Dump area :  333 : NZ_mSLIMSLUIS_BEN   
 Number of segments in area :              1
          number   segment
              1          10935

 Dump area :  334 : NZ_mELSWERD         
 Number of segments in area :              1
          number   segment
              1          10922

 Dump area :  335 : NZ_mSTADENLANDE_BOV 
 Number of segments in area :              1
          number   segment
              1          10969

 Dump area :  336 : NZ_mWEHEDENHOORN    
 Number of segments in area :              1
          number   segment
              1          11884

 Dump area :  337 : NZ_mDENDEEL_BEN     
 Number of segments in area :              1
          number   segment
              1          11092

 Dump area :  338 : NZ_mZOUTKAMP_BEN    
 Number of segments in area :              1
          number   segment
              1          11667

 Dump area :  339 : NZ_mKGM3            
 Number of segments in area :              1
          number   segment
              1          10904

 Dump area :  340 : NZ_mGAARKEUKEN_BEN  
 Number of segments in area :              1
          number   segment
              1          11709

 Dump area :  341 : NZ_mTILBURG_BOV     
 Number of segments in area :              1
          number   segment
              1          11130

 Dump area :  342 : NZ_mWINNEWEER       
 Number of segments in area :              1
          number   segment
              1          12147

 Dump area :  343 : NZ_mOOSTERSLUIS     
 Number of segments in area :              1
          number   segment
              1          12067

 Dump area :  344 : NZ_mKGM2            
 Number of segments in area :              1
          number   segment
              1          10968

 Dump area :  345 : NZ_mKSL26           
 Number of segments in area :              1
          number   segment
              1          11016

 Dump area :  346 : NZ_mKSL27           
 Number of segments in area :              1
          number   segment
              1          11031

 Dump area :  347 : NZ_mABELSTOK_BOV    
 Number of segments in area :              1
          number   segment
              1          11033

 Dump area :  348 : NZ_mKGM155          
 Number of segments in area :              1
          number   segment
              1          11035

 Dump area :  349 : NZ_mNOORDERHOOGEBRUG
 Number of segments in area :              1
          number   segment
              1          11603

 Dump area :  350 : NZ_mKGM1            
 Number of segments in area :              1
          number   segment
              1          11067

 Dump area :  351 : NZ_mWATERWOLF_BEN   
 Number of segments in area :              1
          number   segment
              1          11670

 Dump area :  352 : NZ_mWATERWOLF_BOV   
 Number of segments in area :              1
          number   segment
              1          11684

 Dump area :  353 : NZ_mHEMERT          
 Number of segments in area :              1
          number   segment
              1          12091

 Dump area :  354 : NZ_mTILBURG_BEN     
 Number of segments in area :              1
          number   segment
              1          11978

 Dump area :  355 : NZ_mKGM46a          
 Number of segments in area :              1
          number   segment
              1          11135

 Dump area :  356 : NZ_mSPUISLUIS_DELFZI
 Number of segments in area :              1
          number   segment
              1          11136

 Dump area :  357 : NZ_mLOPPERSUM       
 Number of segments in area :              1
          number   segment
              1          11515

 Dump area :  358 : NZ_mKGM46           
 Number of segments in area :              1
          number   segment
              1          11525

 Dump area :  359 : NZ_mSTARKENBORGHKANA
 Number of segments in area :              1
          number   segment
              1          11765

 Dump area :  360 : NZ_mDENDEEL_BOV     
 Number of segments in area :              1
          number   segment
              1          12119

 Dump area :  361 : HA_Meetst_Oosterslui
 Number of segments in area :              1
          number   segment
              1          12469

 Dump area :  362 : NZ_mTILBURG_BOVENSTR
 Number of segments in area :              1
          number   segment
              1          11990

 Dump area :  363 : NZ_mLAUWERSMEER     
 Number of segments in area :              1
          number   segment
              1          11655

 Dump area :  364 : NZ_mHELWERD_BOV     
 Number of segments in area :              1
          number   segment
              1          11555

 Dump area :  365 : NZ_mKRANGEWEER      
 Number of segments in area :              1
          number   segment
              1          12108

 Dump area :  366 : NZ_mSCHAPHALSTERZIJL
 Number of segments in area :              1
          number   segment
              1          11857

 Dump area :  367 : NZ_mAPPINGEDAM      
 Number of segments in area :              1
          number   segment
              1          12260

 Dump area :  368 : NZ_mHDLOUWES_BOV    
 Number of segments in area :              1
          number   segment
              1          11573

 Dump area :  369 : NZ_mKSL11_BOV       
 Number of segments in area :              1
          number   segment
              1          11642

 Dump area :  370 : NZ_mDELFZIJL_BOV    
 Number of segments in area :              1
          number   segment
              1          12301

 Dump area :  371 : NZ_mOUDEWEER        
 Number of segments in area :              1
          number   segment
              1          11932

 Dump area :  372 : NZ_mONDERDENDAM     
 Number of segments in area :              1
          number   segment
              1          11093

 Dump area :  373 : NZ_mKSL11_BEN       
 Number of segments in area :              1
          number   segment
              1          19095

 Dump area :  374 : NZ_mLEEK_BOV        
 Number of segments in area :              1
          number   segment
              1          11818

 Dump area :  375 : NZ_mSLIMSLUIS_BOV   
 Number of segments in area :              1
          number   segment
              1          11185

 Dump area :  376 : NZ_mLEEKSTERMEER    
 Number of segments in area :              1
          number   segment
              1          12005

 Dump area :  377 : NZ_mKGM137          
 Number of segments in area :              1
          number   segment
              1          11198

 Dump area :  378 : HA_Meas_Ulsda       
 Number of segments in area :              1
          number   segment
              1          12334

 Dump area :  379 : HA_211              
 Number of segments in area :              1
          number   segment
              1          12370

 Dump area :  380 : HA_210              
 Number of segments in area :              1
          number   segment
              1          12333

 Dump area :  381 : HA_222              
 Number of segments in area :              1
          number   segment
              1          13178

 Dump area :  382 : HA_Meetst_Blstad    
 Number of segments in area :              1
          number   segment
              1          12407

 Dump area :  383 : HA_305              
 Number of segments in area :              1
          number   segment
              1          12602

 Dump area :  384 : HA_280              
 Number of segments in area :              1
          number   segment
              1          12629

 Dump area :  385 : HA_Meetst_Veendam   
 Number of segments in area :              1
          number   segment
              1          12416

 Dump area :  386 : HA_529              
 Number of segments in area :              1
          number   segment
              1          12750

 Dump area :  387 : HA_239              
 Number of segments in area :              1
          number   segment
              1          12740

 Dump area :  388 : HA_Q_delfzijl       
 Number of segments in area :              1
          number   segment
              1          12483

 Dump area :  389 : HA_53               
 Number of segments in area :              1
          number   segment
              1          13075

 Dump area :  390 : HA_M986             
 Number of segments in area :              1
          number   segment
              1          13046

 Dump area :  391 : HA_32               
 Number of segments in area :              1
          number   segment
              1          13145

 Dump area :  392 : HA_924              
 Number of segments in area :              1
          number   segment
              1          13087

 Dump area :  393 : HA_Meetst_Blstad_H  
 Number of segments in area :              1
          number   segment
              1          13096

 Dump area :  394 : HA_212              
 Number of segments in area :              1
          number   segment
              1          12386

 Dump area :  395 : HA_1450             
 Number of segments in area :              1
          number   segment
              1          13203

 Dump area :  396 : HA_1459             
 Number of segments in area :              1
          number   segment
              1          13214

 Dump area :  397 : HA_Onno_Oostpolder  
 Number of segments in area :              1
          number   segment
              1          13184

 Dump area :  398 : SRO_MS_ST1006       
 Number of segments in area :              1
          number   segment
              1          13396

 Dump area :  399 : SRO_MS_ST2028       
 Number of segments in area :              1
          number   segment
              1          13485

 Dump area :  400 : SRO_MS_ST3001       
 Number of segments in area :              1
          number   segment
              1          13463

 Dump area :  401 : 239                 
 Number of segments in area :              1
          number   segment
              1          13518

 Dump area :  402 : SRO_MS_G6004        
 Number of segments in area :              1
          number   segment
              1          13645

 Dump area :  403 : SRO_MS_StadUtrecht  
 Number of segments in area :              1
          number   segment
              1          13547

 Dump area :  404 : SRW_Goverwellebrug  
 Number of segments in area :              1
          number   segment
              1          14106

 Dump area :  405 : SRW_184             
 Number of segments in area :              1
          number   segment
              1          13841

 Dump area :  406 : 851                 
 Number of segments in area :              1
          number   segment
              1          13881

 Dump area :  407 : SRW_46              
 Number of segments in area :              1
          number   segment
              1          13734

 Dump area :  408 : RV_5                
 Number of segments in area :              1
          number   segment
              1          14271

 Dump area :  409 : RV_6                
 Number of segments in area :              1
          number   segment
              1          16438

 Dump area :  410 : RV_7                
 Number of segments in area :              1
          number   segment
              1          16448

 Dump area :  411 : RV_8                
 Number of segments in area :              1
          number   segment
              1          14272

 Dump area :  412 : RV_9                
 Number of segments in area :              1
          number   segment
              1          16460

 Dump area :  413 : RV_10               
 Number of segments in area :              1
          number   segment
              1          16470

 Dump area :  414 : RV_Inlaat_Doornenbur
 Number of segments in area :              1
          number   segment
              1          14276

 Dump area :  415 : RV_16               
 Number of segments in area :              1
          number   segment
              1          14319

 Dump area :  416 : RV_17               
 Number of segments in area :              1
          number   segment
              1          16511

 Dump area :  417 : 850                 
 Number of segments in area :              1
          number   segment
              1          14320

 Dump area :  418 : RV_18               
 Number of segments in area :              1
          number   segment
              1          14329

 Dump area :  419 : RV_11               
 Number of segments in area :              1
          number   segment
              1          14343

 Dump area :  420 : RV_12               
 Number of segments in area :              1
          number   segment
              1          16493

 Dump area :  421 : RV_13               
 Number of segments in area :              1
          number   segment
              1          16494

 Dump area :  422 : RV_15               
 Number of segments in area :              1
          number   segment
              1          16499

 Dump area :  423 : RV_14               
 Number of segments in area :              1
          number   segment
              1          14383

 Dump area :  424 : RV_20               
 Number of segments in area :              1
          number   segment
              1          16521

 Dump area :  425 : RV_19               
 Number of segments in area :              1
          number   segment
              1          16515

 Dump area :  426 : COE_Meetpunt Overijs
 Number of segments in area :              1
          number   segment
              1          14510

 Dump area :  427 : VE_CV_hh_30         
 Number of segments in area :              1
          number   segment
              1          14614

 Dump area :  428 : VE_CV_hh_374        
 Number of segments in area :              1
          number   segment
              1          14567

 Dump area :  429 : VE_CV_hh_196        
 Number of segments in area :              1
          number   segment
              1          14582

 Dump area :  430 : VE_CV_hh_571        
 Number of segments in area :              1
          number   segment
              1          14615

 Dump area :  431 : VE_CV_hh_362        
 Number of segments in area :              1
          number   segment
              1          14573

 Dump area :  432 : VE_CV_hh_122        
 Number of segments in area :              1
          number   segment
              1          14591

 Dump area :  433 : VE_CV_vkmm_6        
 Number of segments in area :              1
          number   segment
              1          14625

 Dump area :  434 : VE_CV_vkmm_5        
 Number of segments in area :              1
          number   segment
              1          14629

 Dump area :  435 : VE_CV_vkmm_2        
 Number of segments in area :              1
          number   segment
              1          14645

 Dump area :  436 : VE_CV_vkmm_1        
 Number of segments in area :              1
          number   segment
              1          14680

 Dump area :  437 : VE_CV_am69          
 Number of segments in area :              1
          number   segment
              1          14684

 Dump area :  438 : VE_CV_am35          
 Number of segments in area :              1
          number   segment
              1          14691

 Dump area :  439 : VE_CV_am36          
 Number of segments in area :              1
          number   segment
              1          14701

 Dump area :  440 : VE_BV_2             
 Number of segments in area :              1
          number   segment
              1          14761

 Dump area :  441 : VE_BV_5             
 Number of segments in area :              1
          number   segment
              1          14778

 Dump area :  442 : VE_BV_vkmm_8        
 Number of segments in area :              1
          number   segment
              1          14789

 Dump area :  443 : BD_BD_1             
 Number of segments in area :              1
          number   segment
              1          14938

 Dump area :  444 : ZWLM_GP_W0902       
 Number of segments in area :              1
          number   segment
              1          15217

 Dump area :  445 : ZWLM_GP_W0701       
 Number of segments in area :              1
          number   segment
              1          15218

 Dump area :  446 : ZWLM_GP_W2302       
 Number of segments in area :              1
          number   segment
              1          15240

 Dump area :  447 : ZWLM_GP_W2102       
 Number of segments in area :              1
          number   segment
              1          15252

 Dump area :  448 : ZWLM_GP_W2402       
 Number of segments in area :              1
          number   segment
              1          15268

 Dump area :  449 : ZWLM_GP_WSH02       
 Number of segments in area :              1
          number   segment
              1          15326

 Dump area :  450 : ZWLM_GP_WSH01       
 Number of segments in area :              1
          number   segment
              1          15333

 Dump area :  451 : ZWLM_GP_W0401       
 Number of segments in area :              1
          number   segment
              1          15335

 Dump area :  452 : ZWLM_GP_W0501       
 Number of segments in area :              1
          number   segment
              1          15337

 Dump area :  453 : ZWLM_GP_W0402       
 Number of segments in area :              1
          number   segment
              1          15346

 Dump area :  454 : ZWLM_GP_W0601       
 Number of segments in area :              1
          number   segment
              1          15348

 Dump area :  455 : ZWLM_GP_W0502       
 Number of segments in area :              1
          number   segment
              1          15357

 Dump area :  456 : ZWLM_GP_W1001       
 Number of segments in area :              1
          number   segment
              1          15368

 Dump area :  457 : ZWLM_GP_W2401       
 Number of segments in area :              1
          number   segment
              1          15376

 Dump area :  458 : ZWLM_GP_W2301       
 Number of segments in area :              1
          number   segment
              1          15389

 Dump area :  459 : ZWLM_GP_W2202       
 Number of segments in area :              1
          number   segment
              1          15394

 Dump area :  460 : ZWLM_GP_W2201       
 Number of segments in area :              1
          number   segment
              1          15396

 Dump area :  461 : ZWLM_GP_W0602       
 Number of segments in area :              1
          number   segment
              1          15157

 Dump area :  462 : ZWLM_GP_WHM02       
 Number of segments in area :              1
          number   segment
              1          15216

 Dump area :  463 : ZWLM_GP_W1002       
 Number of segments in area :              1
          number   segment
              1          15421

 Dump area :  464 : ZZ_Hoge_Knarsluis   
 Number of segments in area :              1
          number   segment
              1          15608

 Dump area :  465 : 760                 
 Number of segments in area :              1
          number   segment
              1          16071

 Dump area :  466 : ZZ_Lage_Knarsluis   
 Number of segments in area :              1
          number   segment
              1          16074

 Dump area :  467 : 764                 
 Number of segments in area :              1
          number   segment
              1          16174

 Dump area :  468 : ZZ_114              
 Number of segments in area :              1
          number   segment
              1          16397

 Dump area :  469 : OY_BOV_MS_ST54410002
 Number of segments in area :              1
          number   segment
              1          16655

 Dump area :  470 : OY_2_C54530006      
 Number of segments in area :              1
          number   segment
              1          16672

 Dump area :  471 : OY_2                
 Number of segments in area :              1
          number   segment
              1          16708

 Dump area :  472 : DO_meas_DL62-1010   
 Number of segments in area :              1
          number   segment
              1          17261

 Dump area :  473 : DO_meas_DO1-43810   
 Number of segments in area :              1
          number   segment
              1          17322

 Dump area :  474 : DO_meas_DO1-35426   
 Number of segments in area :              1
          number   segment
              1          17338

 Dump area :  475 : DO_1                
 Number of segments in area :              1
          number   segment
              1          17388

 Dump area :  476 : DO_meas_DrongelensKa
 Number of segments in area :              1
          number   segment
              1          17467

 Dump area :  477 : DO_meas_Bovenlandsch
 Number of segments in area :              1
[...]

 CONCENTRATIONs within the item blocks:
 Input CONCENTR.  nr:    1 is CONCENTR.  nr:    1 with ID  : Check               
 Input CONCENTR.  nr:    2 is CONCENTR.  nr:   13 with ID  : Lat_Groningen       

 DATA grouped in    1 blocks of    2 Substance 
 Constant values in this block.
 Substance      1          13
 boundary     Check       Lat_Gronin  
        15    1.0000E+00  1.0000E+00

 ====> input item completed <==== 



 BLOCKED per ITEM:
 Input BOUNDARIES nr:    1 is BOUNDARIES nr:   16 with type: Lat_Leeuwarden      

 CONCENTRATIONs within the item blocks:
 Input CONCENTR.  nr:    1 is CONCENTR.  nr:    1 with ID  : Check               
 Input CONCENTR.  nr:    2 is CONCENTR.  nr:   14 with ID  : Lat_Leeuwarden      

 DATA grouped in    1 blocks of    2 Substance 
 Constant values in this block.
 Substance      1          14
 boundary     Check       Lat_Leeuwa  
        16    1.0000E+00  1.0000E+00

 ====> input item completed <==== 



 BLOCKED per ITEM:
 Input BOUNDARIES nr:    1 is BOUNDARIES nr:   12 with type: Lat_RWZI            

 CONCENTRATIONs within the item blocks:
 Input CONCENTR.  nr:    1 is CONCENTR.  nr:    1 with ID  : Check               
 Input CONCENTR.  nr:    2 is CONCENTR.  nr:   15 with ID  : Lat_RWZI            

 DATA grouped in    1 blocks of    2 Substance 
 Constant values in this block.
 Substance      1          15
 boundary     Check       Lat_RWZI    
        12    1.0000E+00  1.0000E+00

 ====> input item completed <==== 



 BLOCKED per ITEM:
 Input BOUNDARIES nr:    1 is BOUNDARIES nr:    6 with type: Lat_OtherER         

 CONCENTRATIONs within the item blocks:
 Input CONCENTR.  nr:    1 is CONCENTR.  nr:    1 with ID  : Check               
 Input CONCENTR.  nr:    2 is CONCENTR.  nr:   16 with ID  : Lat_OtherER         

 DATA grouped in    1 blocks of    2 Substance 
 Constant values in this block.
 Substance      1          16
 boundary     Check       Lat_OtherE  
         6    1.0000E+00  1.0000E+00

 ====> input item completed <==== 



 BLOCKED per ITEM:
 Input BOUNDARIES nr:    1 is BOUNDARIES nr:   39 with type: Lat_Precipitation   

 CONCENTRATIONs within the item blocks:
 Input CONCENTR.  nr:    1 is CONCENTR.  nr:    1 with ID  : Check               
 Input CONCENTR.  nr:    2 is CONCENTR.  nr:   17 with ID  : Lat_Precipitation   

 DATA grouped in    1 blocks of    2 Substance 
 Constant values in this block.
 Substance      1          17
 boundary     Check       Lat_Precip  
        39    1.0000E+00  1.0000E+00

 ====> input item completed <==== 



 BLOCKED per ITEM:
 Input BOUNDARIES nr:    1 is BOUNDARIES nr:    7 with type: Lat_Other           

 CONCENTRATIONs within the item blocks:
 Input CONCENTR.  nr:    1 is CONCENTR.  nr:    1 with ID  : Check               
 Input CONCENTR.  nr:    2 is CONCENTR.  nr:   18 with ID  : Lat_Other           

 DATA grouped in    1 blocks of    2 Substance 
 Constant values in this block.
 Substance      1          18
 boundary     Check       Lat_Other   
         7    1.0000E+00  1.0000E+00

 ====> input item completed <==== 



 BLOCKED per ITEM:
 Input BOUNDARIES nr:    1 is BOUNDARIES nr:   21 with type: Brabant             

 CONCENTRATIONs within the item blocks:
 Input CONCENTR.  nr:    1 is CONCENTR.  nr:    1 with ID  : Check               
 Input CONCENTR.  nr:    2 is CONCENTR.  nr:   19 with ID  : Brabant             

 DATA grouped in    1 blocks of    2 Substance 
 Constant values in this block.
 Substance      1          19
 boundary     Check       Brabant     
        21    1.0000E+00  1.0000E+00

 ====> input item completed <==== 



 BLOCKED per ITEM:
 Input BOUNDARIES nr:    1 is BOUNDARIES nr:   24 with type: Schelde             

 CONCENTRATIONs within the item blocks:
 Input CONCENTR.  nr:    1 is CONCENTR.  nr:    1 with ID  : Check               
 Input CONCENTR.  nr:    2 is CONCENTR.  nr:   20 with ID  : Schelde             

 DATA grouped in    1 blocks of    2 Substance 
 Constant values in this block.
 Substance      1          20
 boundary     Check       Schelde     
        24    1.0000E+00  1.0000E+00

 ====> input item completed <==== 



 BLOCKED per ITEM:
 Input BOUNDARIES nr:    1 is BOUNDARIES nr:   20 with type: PL_Grevelingen      

 CONCENTRATIONs within the item blocks:
 Input CONCENTR.  nr:    1 is CONCENTR.  nr:    1 with ID  : Check               
 Input CONCENTR.  nr:    2 is CONCENTR.  nr:   21 with ID  : PL_Grevelingen      

 DATA grouped in    1 blocks of    2 Substance 
 Constant values in this block.
 Substance      1          21
 boundary     Check       PL_Greveli  
        20    1.0000E+00  1.0000E+00

 ====> input item completed <==== 



 BLOCKED per ITEM:
 Input BOUNDARIES nr:    1 is BOUNDARIES nr:   19 with type: PL_OosterSchelde    

 CONCENTRATIONs within the item blocks:
 Input CONCENTR.  nr:    1 is CONCENTR.  nr:    1 with ID  : Check               
 Input CONCENTR.  nr:    2 is CONCENTR.  nr:   22 with ID  : PL_OosterSchelde    

 DATA grouped in    1 blocks of    2 Substance 
 Constant values in this block.
 Substance      1          22
 boundary     Check       PL_OosterS  
        19    1.0000E+00  1.0000E+00

 ====> input item completed <==== 



 BLOCKED per ITEM:
 Input BOUNDARIES nr:    1 is BOUNDARIES nr:   23 with type: PL_WesterSchelde    

 CONCENTRATIONs within the item blocks:
 Input CONCENTR.  nr:    1 is CONCENTR.  nr:    1 with ID  : Check               
 Input CONCENTR.  nr:    2 is CONCENTR.  nr:   23 with ID  : PL_WesterSchelde    

 DATA grouped in    1 blocks of    2 Substance 
 Constant values in this block.
 Substance      1          23
 boundary     Check       PL_WesterS  
        23    1.0000E+00  1.0000E+00

 ====> input item completed <==== 



 BLOCKED per ITEM:
 Input BOUNDARIES nr:    1 is BOUNDARIES nr:   22 with type: NoordzeeWS          

 CONCENTRATIONs within the item blocks:
 Input CONCENTR.  nr:    1 is CONCENTR.  nr:    1 with ID  : Check               
 Input CONCENTR.  nr:    2 is CONCENTR.  nr:   24 with ID  : NoordzeeWS          

 DATA grouped in    1 blocks of    2 Substance 
 Constant values in this block.
 Substance      1          24
 boundary     Check       NoordzeeWS  
        22    1.0000E+00  1.0000E+00

 ====> input item completed <==== 



 BLOCKED per ITEM:
 Input BOUNDARIES nr:    1 is BOUNDARIES nr:    9 with type: Evaporation         

 CONCENTRATIONs within the item blocks:
 Input CONCENTR.  nr:    1 is CONCENTR.  nr:    1 with ID  : Check               
 Input CONCENTR.  nr:    2 is CONCENTR.  nr:   25 with ID  : Evaporation         

 DATA grouped in    1 blocks of    2 Substance 
 Constant values in this block.
 Substance      1          25
 boundary     Check       Evaporatio  
         9    1.0000E+00  1.0000E+00

 ====> input item completed <==== 



 BLOCKED per ITEM:
 Input BOUNDARIES nr:    1 is BOUNDARIES nr:   11 with type: Neerslag            

 CONCENTRATIONs within the item blocks:
 Input CONCENTR.  nr:    1 is CONCENTR.  nr:    1 with ID  : Check               
 Input CONCENTR.  nr:    2 is CONCENTR.  nr:   26 with ID  : Neerslag            

 DATA grouped in    1 blocks of    2 Substance 
 Constant values in this block.
 Substance      1          26
 boundary     Check       Neerslag    
        11    1.0000E+00  1.0000E+00

 ====> input item completed <==== 



 BLOCKED per ITEM:
 Input BOUNDARIES nr:    1 is BOUNDARIES nr:   25 with type: KanGentTern         

 CONCENTRATIONs within the item blocks:
 Input CONCENTR.  nr:    1 is CONCENTR.  nr:    1 with ID  : Check               
 Input CONCENTR.  nr:    2 is CONCENTR.  nr:   27 with ID  : KanGentTern         

 DATA grouped in    1 blocks of    2 Substance 
 Constant values in this block.
 Substance      1          27
 boundary     Check       KanGentTer  
        25    1.0000E+00  1.0000E+00

 ====> input item completed <==== 



 BLOCKED per ITEM:
 Input BOUNDARIES nr:    1 is BOUNDARIES nr:   27 with type: kwel                

 CONCENTRATIONs within the item blocks:
 Input CONCENTR.  nr:    1 is CONCENTR.  nr:    1 with ID  : Check               
 Input CONCENTR.  nr:    2 is CONCENTR.  nr:   28 with ID  : kwel                

 DATA grouped in    1 blocks of    2 Substance 
 Constant values in this block.
 Substance      1          28
 boundary     Check       kwel        
        27    1.0000E+00  1.0000E+00

 ====> input item completed <==== 



 BLOCKED per ITEM:
 Input BOUNDARIES nr:    1 is BOUNDARIES nr:   26 with type: sluis               

 CONCENTRATIONs within the item blocks:
 Input CONCENTR.  nr:    1 is CONCENTR.  nr:    1 with ID  : Check               
 Input CONCENTR.  nr:    2 is CONCENTR.  nr:   29 with ID  : sluis               

 DATA grouped in    1 blocks of    2 Substance 
 Constant values in this block.
 Substance      1          29
 boundary     Check       sluis       
        26    1.0000E+00  1.0000E+00

 ====> input item completed <==== 



 BLOCKED per ITEM:
 Input BOUNDARIES nr:    1 is BOUNDARIES nr:   31 with type: industrie           

 CONCENTRATIONs within the item blocks:
 Input CONCENTR.  nr:    1 is CONCENTR.  nr:    1 with ID  : Check               
 Input CONCENTR.  nr:    2 is CONCENTR.  nr:   30 with ID  : industrie           

 DATA grouped in    1 blocks of    2 Substance 
 Constant values in this block.
 Substance      1          30
 boundary     Check       industrie   
        31    1.0000E+00  1.0000E+00

 ====> input item completed <==== 



 BLOCKED per ITEM:
 Input BOUNDARIES nr:    1 is BOUNDARIES nr:   33 with type: Rnld                

 CONCENTRATIONs within the item blocks:
 Input CONCENTR.  nr:    1 is CONCENTR.  nr:    1 with ID  : Check               
 Input CONCENTR.  nr:    2 is CONCENTR.  nr:   31 with ID  : Rnld                

 DATA grouped in    1 blocks of    2 Substance 
 Constant values in this block.
 Substance      1          31
 boundary     Check       Rnld        
        33    1.0000E+00  1.0000E+00

 ====> input item completed <==== 



 BLOCKED per ITEM:
 Input BOUNDARIES nr:    1 is BOUNDARIES nr:   32 with type: HHNK                

 CONCENTRATIONs within the item blocks:
 Input CONCENTR.  nr:    1 is CONCENTR.  nr:    1 with ID  : Check               
 Input CONCENTR.  nr:    2 is CONCENTR.  nr:   32 with ID  : HHNK                

 DATA grouped in    1 blocks of    2 Substance 
 Constant values in this block.
 Substance      1          32
 boundary     Check       HHNK        
        32    1.0000E+00  1.0000E+00

 ====> input item completed <==== 



 BLOCKED per ITEM:
 Input BOUNDARIES nr:    1 is BOUNDARIES nr:   29 with type: Groot Mijdrecht     

 CONCENTRATIONs within the item blocks:
 Input CONCENTR.  nr:    1 is CONCENTR.  nr:    1 with ID  : Check               
 Input CONCENTR.  nr:    2 is CONCENTR.  nr:   33 with ID  : Groot Mijdrecht     

 DATA grouped in    1 blocks of    2 Substance 
 Constant values in this block.
 Substance      1          33
 boundary     Check       Groot Mijd  
        29    1.0000E+00  1.0000E+00

 ====> input item completed <==== 



 BLOCKED per ITEM:
 Input BOUNDARIES nr:    1 is BOUNDARIES nr:   37 with type: Bijlmer             

 CONCENTRATIONs within the item blocks:
 Input CONCENTR.  nr:    1 is CONCENTR.  nr:    1 with ID  : Check               
 Input CONCENTR.  nr:    2 is CONCENTR.  nr:   34 with ID  : Bijlmer             

 DATA grouped in    1 blocks of    2 Substance 
 Constant values in this block.
 Substance      1          34
 boundary     Check       Bijlmer     
        37    1.0000E+00  1.0000E+00

 ====> input item completed <==== 



 BLOCKED per ITEM:
 Input BOUNDARIES nr:    1 is BOUNDARIES nr:   36 with type: Horstermeer         

 CONCENTRATIONs within the item blocks:
 Input CONCENTR.  nr:    1 is CONCENTR.  nr:    1 with ID  : Check               
 Input CONCENTR.  nr:    2 is CONCENTR.  nr:   35 with ID  : Horstermeer         

 DATA grouped in    1 blocks of    2 Substance 
 Constant values in this block.
 Substance      1          35
 boundary     Check       Horstermee  
        36    1.0000E+00  1.0000E+00

 ====> input item completed <==== 



 BLOCKED per ITEM:
 Input BOUNDARIES nr:    1 is BOUNDARIES nr:   34 with type: HolendrechtBullewijk

 CONCENTRATIONs within the item blocks:
 Input CONCENTR.  nr:    1 is CONCENTR.  nr:    1 with ID  : Check               
 Input CONCENTR.  nr:    2 is CONCENTR.  nr:   36 with ID  : HolendrechtBullewijk

 DATA grouped in    1 blocks of    2 Substance 
 Constant values in this block.
 Substance      1          36
 boundary     Check       Holendrech  
        34    1.0000E+00  1.0000E+00

 ====> input item completed <==== 



 BLOCKED per ITEM:
 Input BOUNDARIES nr:    1 is BOUNDARIES nr:   17 with type: HDSR                

 CONCENTRATIONs within the item blocks:
 Input CONCENTR.  nr:    1 is CONCENTR.  nr:    1 with ID  : Check               
 Input CONCENTR.  nr:    2 is CONCENTR.  nr:   37 with ID  : HDSR                

 DATA grouped in    1 blocks of    2 Substance 
 Constant values in this block.
 Substance      1          37
 boundary     Check       HDSR        
        17    1.0000E+00  1.0000E+00

 ====> input item completed <==== 



 BLOCKED per ITEM:
 Input BOUNDARIES nr:    1 is BOUNDARIES nr:   28 with type: AGV                 

 CONCENTRATIONs within the item blocks:
 Input CONCENTR.  nr:    1 is CONCENTR.  nr:    1 with ID  : Check               
 Input CONCENTR.  nr:    2 is CONCENTR.  nr:   38 with ID  : AGV                 

 DATA grouped in    1 blocks of    2 Substance 
 Constant values in this block.
 Substance      1          38
 boundary     Check       AGV         
        28    1.0000E+00  1.0000E+00

 ====> input item completed <==== 



 BLOCKED per ITEM:
 Input BOUNDARIES nr:    1 is BOUNDARIES nr:   30 with type: Asd (boezemland)    

 CONCENTRATIONs within the item blocks:
 Input CONCENTR.  nr:    1 is CONCENTR.  nr:    1 with ID  : Check               
 Input CONCENTR.  nr:    2 is CONCENTR.  nr:   39 with ID  : Asd (boezemland)    

 DATA grouped in    1 blocks of    2 Substance 
 Constant values in this block.
 Substance      1          39
 boundary     Check       Asd (boeze  
        30    1.0000E+00  1.0000E+00

 ====> input item completed <==== 



 BLOCKED per ITEM:
 Input BOUNDARIES nr:    1 is BOUNDARIES nr:   38 with type: IJmuiden            

 CONCENTRATIONs within the item blocks:
 Input CONCENTR.  nr:    1 is CONCENTR.  nr:    1 with ID  : Check               
 Input CONCENTR.  nr:    2 is CONCENTR.  nr:   40 with ID  : IJmuiden            

 DATA grouped in    1 blocks of    2 Substance 
 Constant values in this block.
 Substance      1          40
 boundary     Check       IJmuiden    
        38    1.0000E+00  1.0000E+00

 ====> input item completed <==== 



 BLOCKED per ITEM:
 Input BOUNDARIES nr:    1 is BOUNDARIES nr:   35 with type: DuivendrMiddelpold  

 CONCENTRATIONs within the item blocks:
 Input CONCENTR.  nr:    1 is CONCENTR.  nr:    1 with ID  : Check               
 Input CONCENTR.  nr:    2 is CONCENTR.  nr:   41 with ID  : DuivendrMiddelpold  

 DATA grouped in    1 blocks of    2 Substance 
 Constant values in this block.
 Substance      1          41
 boundary     Check       DuivendrMi  
        35    1.0000E+00  1.0000E+00

 ====> input item completed <==== 



 Closing file: ..\work\Boundfra.dat                                                          

 Continuing on file: delwaq.inp                                                                    

 *********************************************************** B L O C K - 5 *****


 No waste loads 

 *********************************************************** B L O C K - 6 *****

  
 Input constant   nr:    1 is constant   nr:    1 with ID  : Iteration report    

 DATA grouped in    1 blocks of    1 values    
 Constant values in this block.
         1    0.0000E+00

 ====> input item completed <==== 



 Total number of constants        :    1

 Total number of parameters       :    0

 Total number of functions        :    0

 Total number of segment functions:    0

 *********************************************************** B L O C K - 7 *****


 Including file: \SOB21204\LSM0_9D.LIT\1\WQ.DAT                                                                                                                                                                                                                                                                                                                                                                                                                                                                                                                                                                                                                                                                                                                                                                                                                                                                                                                                                                                                          


 Option selected for initials    :   0

 Information from unformatted intermediate file.
 Filename is: ..\WORK\DUMMY.RES                                                                                                                                                                                                                                              

 Closing file: \SOB21204\LSM0_9D.LIT\1\WQ.DAT                                                

 Continuing on file: delwaq.inp                                                                    

 *********************************************************** B L O C K - 8 *****



 Option selected for output specification :   1
 Information from the standard input file.

 Specification of monitor output

 Default output for this file

 Specification of grid dump output

 No output for this file

 Specification of history output

 All substances plus extra output variables

 (      1) number of output variables specified

 Number           Identification        Weight variable
       1           Volume                                    

 Specification of map output

 All substances plus extra output variables

 (      1) number of output variables specified

 Number           Identification 
       1           Volume              

 Binary history file switched on

 Binary map file switched on

 NEFIS history file switched off

 NEFIS map file switched off

 NO BALANCE output : balance option not active !
 
  Determining the place of the output variables
 
        Volume              ; Using DELWAQ VOLUME
        Volume              ; Using DELWAQ VOLUME

 *********************************************************** B L O C K - 9 *****


 Output operations
Number of periods defined:     0
 

 *********************************************************** B L O C K -10 *****



 Messages presented in this .lst file:

 Number of ERRORS during input :  0
 


 Messages presented including .lsp file:

 Number of ERRORS during input :  0
 total real    array space:    9477860
 total integer array space:     947119
 total CHARACTER*20  space:      28487
 Execution stop : 2012/09/17 00:08:56 
