 Delft3D-WAQ version  4.5212 17-06-2011
 Only to be used by Buffel                                  
 (c) Deltares
 Execution start: 2012/07/02 11:42:10 
       ----------> Version number of the input file is: 4.910
       ----------> Output level of the listfile is: 9


 Model :            Water quality calculation Sobek-WQ      
                                                            

 Including file: \SBKRIVER\DEMO_10.LIT\WORK\DELWAQ4.INP                                                                                                                                                                                                                                                                                                                                                                                                                                                                                                                                                                                                                                                                                                                                                                                                                                                                                                                                                                                                  


 Run   :                                                    
                    T0: 1996.01.01 00:00:00  (scu=       1s)

 Intermediate version absolute timer detected !
 System clock is     1 seconds !

 Closing file: \SBKRIVER\DEMO_10.LIT\WORK\DELWAQ4.INP                                        

 Continuing on file: delwaq.inp                                                                    

 Including file: \SBKRIVER\DEMO_10.LIT\1\SUBSTANC.DWQ                                                                                                                                                                                                                                                                                                                                                                                                                                                                                                                                                                                                                                                                                                                                                                                                                                                                                                                                                                                                    

 Closing file: \SBKRIVER\DEMO_10.LIT\1\SUBSTANC.DWQ                                          

 Continuing on file: delwaq.inp                                                                    

 Number of active constituents   :  5
 Number of inactive constituents :  6
 Total number of constituents    : 11
 Number   name
    1     CWTOT               
    2     POCW                
    3     SSW                 
    4     DOCW                
    5     AOCW                
    6     DOCB                
    7     POCB                
    8     DOCSUB              
    9     POCSUB              
   10     CBTOT               
   11     CSUBT               

 *********************************************************** B L O C K - 1 *****


 Including file: \SBKRIVER\DEMO_10.LIT\WORK\DELWAQ1.INP                                                                                                                                                                                                                                                                                                                                                                                                                                                                                                                                                                                                                                                                                                                                                                                                                                                                                                                                                                                                  


 Factor between two clocks :       86400
 System clock in date-format  DDHHMMSS 
 Auxiliary timer in date-format DDHHMMSS 

 The auxiliary timer is not equal to the system timer.
 All the process fluxes will be scaled from the auxiliary timer to the system timer.

 Integration option :               15.60
 Start of simulation : 0Y-  0D- 0H- 0M- 0S.
 End of simulation   : 1Y-  1D- 1H- 0M- 0S.
 Selected option for time step size :  0
 Integration time stepsize is : 0Y-  1D- 0H- 0M- 0S.

 Closing file: \SBKRIVER\DEMO_10.LIT\WORK\DELWAQ1.INP                                        

 Continuing on file: delwaq.inp                                                                    

 Dump areas:
 option selected for input : 1
 Information from the standard input file.

 Including file: \SBKRIVER\DEMO_10.LIT\1\OUTLOCWQ.DAT                                                                                                                                                                                                                                                                                                                                                                                                                                                                                                                                                                                                                                                                                                                                                                                                                                                                                                                                                                                                    

 Including file: ..\work\monitor.dat                                                                                                                                                                                                                                                                                                                                                                                                                                                                                                                                                                                                                                                                                                                                                                                                                                                                                                                                                                                                                     

 Number of dump areas :    2

 Dump area :    1 : obs_1               
 Number of segments in area :              1
          number   segment
              1              4

 Dump area :    2 : SWT_Normal          
 Number of segments in area :              8
          number   segment
              1              1
              2              2
              3              3
              4              4
              5              5
              6              6
              7              7
              8              8

 Closing file: ..\work\monitor.dat                                                           

 Continuing on file: \SBKRIVER\DEMO_10.LIT\1\OUTLOCWQ.DAT                                          

 Closing file: \SBKRIVER\DEMO_10.LIT\1\OUTLOCWQ.DAT                                          

 Continuing on file: delwaq.inp                                                                    

 Transects:
 option selected for input : 2
 No transects used.

 Including file: \SBKRIVER\DEMO_10.LIT\WORK\DELWAQ2.INP                                                                                                                                                                                                                                                                                                                                                                                                                                                                                                                                                                                                                                                                                                                                                                                                                                                                                                                                                                                                  


 Monitoring  timings :
 Start time : 0Y-  0D- 0H- 0M- 0S 
 Stop time  : 1Y-  1D- 1H- 0M- 0S 
 Time step  : 0Y-  7D- 0H- 0M- 0S 


 Output      timings :
 Start time : 0Y-  0D- 0H- 0M- 0S 
 Stop time  : 1Y-  1D- 1H- 0M- 0S 
 Time step  : 0Y-  7D- 0H- 0M- 0S 


 History     timings :
 Start time : 0Y-  0D- 0H- 0M- 0S 
 Stop time  : 1Y-  1D- 1H- 0M- 0S 
 Time step  : 0Y-  7D- 0H- 0M- 0S 

 Closing file: \SBKRIVER\DEMO_10.LIT\WORK\DELWAQ2.INP                                        

 Continuing on file: delwaq.inp                                                                    

 *********************************************************** B L O C K - 2 *****


 Including file: ..\WORK\nrofsegm.dat                                                                                                                                                                                                                                                                                                                                                                                                                                                                                                                                                                                                                                                                                                                                                                                                                                                                                                                                                                                                                    


 Number of segments :              8

 Closing file: ..\WORK\nrofsegm.dat                                                          

 Continuing on file: delwaq.inp                                                                    

 NO process decomposition selected

 option selected for grid layout : 2
 Grid layout not used.

  0 blocks of time independent attribute contribution

 option for time dependent attributes   0
 NO time dependent attributes
 No first attribute set, using default 1
 No second attribute set, using default 0

 Volumes:

 Including file: flowfil.mod                                                                                                                                                                                                                                                                                                                                                                                                                                                                                                                                                                                                                                                                                                                                                                                                                                                                                                                                                                                                                             

 First  selected option   :      -2

 Closing file: flowfil.mod                                                                   

 Continuing on file: delwaq.inp                                                                    

 Information from unformatted intermediate file.
 Filename is: ..\WORK\Volume.dat                                                                                                                                                                                                                                             
 WARNING file does not exist.
 Filename: ..\WORK\Volume.dat                                                                                                                                                                                                                                             

 *********************************************************** B L O C K - 3 *****


 Including file: ..\WORK\nrofexch.dat                                                                                                                                                                                                                                                                                                                                                                                                                                                                                                                                                                                                                                                                                                                                                                                                                                                                                                                                                                                                                    


 Dimensions of the system :
 Number of exchanges 1st direction :      11
 Number of exchanges 2nd direction :       0
 Number of exchanges 3rd direction :       0
 Total number of exchanges         :      11

 Closing file: ..\WORK\nrofexch.dat                                                          

 Continuing on file: delwaq.inp                                                                    

 Number of dispersion arrays       :       1

 Including file: \SBKRIVER\DEMO_10.LIT\1\DISPERSW.DAT                                                                                                                                                                                                                                                                                                                                                                                                                                                                                                                                                                                                                                                                                                                                                                                                                                                                                                                                                                                                    

 Item nr:       names:
     1          Dispersion          
 

 Closing file: \SBKRIVER\DEMO_10.LIT\1\DISPERSW.DAT                                          

 Continuing on file: delwaq.inp                                                                    

 Number of velocity arrays         :       0
 System dispersion velocity
   nr.      nr.      nr.   
     1        1        0
     2        1        0
     3        1        0
     4        1        0
     5        1        0

 Input option                      :       1

 Option selected for pointers      :      -1

 Including file: ..\WORK\Pointer.dat                                                                                                                                                                                                                                            

           First direction :
   Item nr.  From      To  From-1    To+1
       1       2       1       3       0
       2       3       2       4       1
       3       4       3       5       2
       4       5       4       6       3
       5       6       5       7       4
       6       7       6       8       5
       7       8       7       0       6
       8      -1       4      -1       5
       9      -2       4      -2       5
      10      -3       1      -3       2
      11      -4       8      -4       7

 Number of boundaries  :   4


 boundary  exchange    from        to
  number    number    segment    segment
      1         8        -1         4
      2         9        -2         4
      3        10        -3         1
      4        11        -4         8

 Size of the big matrix for fast solvers is:         18

 Dispersion:

 Closing file: ..\WORK\Pointer.dat                                                           

 Continuing on file: delwaq.inp                                                                    

 Including file: \SBKRIVER\DEMO_10.LIT\1\DELWAQ3.INP                                                                                                                                                                                                                                                                                                                                                                                                                                                                                                                                                                                                                                                                                                                                                                                                                                                                                                                                                                                                     

 First  selected option   :       1
 Information from the standard input file.
 Constant values without defaults 

 Scale factors:
                 1           2           3
              1.0000E+00  1.0000E+00  1.0000E+00
 Unscaled values:
         1    5.0000E+00  0.0000E+00  0.0000E+00

 Closing file: \SBKRIVER\DEMO_10.LIT\1\DELWAQ3.INP                                           

 Continuing on file: delwaq.inp                                                                    

 Including file: ..\work\disperx.dat                                                                                                                                                                                                                                                                                                                                                                                                                                                                                                                                                                                                                                                                                                                                                                                                                                                                                                                                                                                                                     
 Second selected option   :       1

 First  direction:
 Constant values without defaults 

 Scale factors:
                 1
              1.0000E+00
 Unscaled values:
         1    0.0000E+00
         2    0.0000E+00
         3    0.0000E+00
         4    0.0000E+00
         5    0.0000E+00
         6    0.0000E+00
         7    0.0000E+00
         8    0.0000E+00
         9    0.0000E+00
        10    0.0000E+00
        11    0.0000E+00

 Area:

 Closing file: ..\work\disperx.dat                                                           

 Continuing on file: delwaq.inp                                                                    

 Including file: flowfil.mod                                                                                                                                                                                                                                                                                                                                                                                                                                                                                                                                                                                                                                                                                                                                                                                                                                                                                                                                                                                                                             

 First  selected option   :      -2

 Closing file: flowfil.mod                                                                   

 Continuing on file: delwaq.inp                                                                    

 Information from unformatted intermediate file.
 Filename is: ..\WORK\Area.dat                                                                                                                                                                                                                                               
 WARNING file does not exist.
 Filename: ..\WORK\Area.dat                                                                                                                                                                                                                                               

 Flows:

 Including file: flowfil.mod                                                                                                                                                                                                                                                                                                                                                                                                                                                                                                                                                                                                                                                                                                                                                                                                                                                                                                                                                                                                                             

 First  selected option   :      -2

 Closing file: flowfil.mod                                                                   

 Continuing on file: delwaq.inp                                                                    

 Information from unformatted intermediate file.
 Filename is: ..\WORK\Flow.dat                                                                                                                                                                                                                                               
 WARNING file does not exist.
 Filename: ..\WORK\Flow.dat                                                                                                                                                                                                                                               

 Lengths:
 Option for lengths          :      1
 Lengths variable over the area.

 First  selected option   :       0

 Information from unformatted intermediate file.
 Filename is: ..\WORK\Length.dat                                                                                                                                                                                                                                             
 WARNING file does not exist.
 Filename: ..\WORK\Length.dat                                                                                                                                                                                                                                             

 *********************************************************** B L O C K - 4 *****


 Boundary-IDs:       boundary-names:                         boundary-types:


 Including file: ..\WORK\Boundwq.id                                                                                                                                                                                                                                                                                                                                                                                                                                                                                                                                                                                                                                                                                                                                                                                                                                                                                                                                                                                                                      
ib~l3                   1                                   Internal            
ib~l-3                  2                                   Internal            
n1                      3                                   Lateral inflow      
n2                      4                                   Lateral inflow      
 
 Number of different boundary types:    2
 Type:  Type-string
     1  Internal            
     2  Lateral inflow      
 

 Closing file: ..\WORK\Boundwq.id                                                            

 Continuing on file: delwaq.inp                                                                    

 Including file: ..\work\tatcherharlemen.wq                                                                                                                                                                                                                                                                                                                                                                                                                                                                                                                                                                                                                                                                                                                                                                                                                                                                                                                                                                                                              

 Time lag option:  0
 No time lags

 Boundary concentrations

 Closing file: ..\work\tatcherharlemen.wq                                                    

 Continuing on file: delwaq.inp                                                                    

 Including file: \SBKRIVER\DEMO_10.LIT\1\BOUNDWQ.TYP                                                                                                                                                                                                                                                                                                                                                                                                                                                                                                                                                                                                                                                                                                                                                                                                                                                                                                                                                                                                     

 BLOCKED per ITEM:
 WARNING: Input BOUNDARIES nr:    1 with name: Boundary Flow        is not a valid ID, data ignored
 Input BOUNDARIES nr:    1 is BOUNDARIES nr:***** with ID  :              Ignored and local substitution: Boundary Flow       

 CONCENTRATIONs within the item blocks:
 Input CONCENTR.  nr:    1 is CONCENTR.  nr:    1 with ID  : CWTOT                and local substitution: CWTOT               
 Input CONCENTR.  nr:    2 is CONCENTR.  nr:    2 with ID  : POCW                 and local substitution: POCW                
 Input CONCENTR.  nr:    3 is CONCENTR.  nr:    3 with ID  : SSW                  and local substitution: SSW                 
 Input CONCENTR.  nr:    4 is CONCENTR.  nr:    4 with ID  : DOCW                 and local substitution: DOCW                
 Input CONCENTR.  nr:    5 is CONCENTR.  nr:    5 with ID  : AOCW                 and local substitution: AOCW                
 
 Column:  1 contains: CWTOT                                    Status: used    
 Column:  2 contains: POCW                                     Status: used    
 Column:  3 contains: SSW                                      Status: used    
 Column:  4 contains: DOCW                                     Status: used    
 Column:  5 contains: AOCW                                     Status: used    

 DATA grouped in         1 blocks of         5 Substance 
 Constant values in this block.
 Substance      1           2           3           4           5
 boundary     CWTOT       POCW        SSW         DOCW        AOCW        
1300000000    0.0000E+00  0.0000E+00  0.0000E+00  0.0000E+00  0.0000E+00

 ====> input item completed <==== 



 BLOCKED per ITEM:
 Input BOUNDARIES nr:    1 is BOUNDARIES type:    2 with type: Lateral inflow       and local substitution: Lateral inflow      

 CONCENTRATIONs within the item blocks:
 Input CONCENTR.  nr:    1 is CONCENTR.  nr:    1 with ID  : CWTOT                and local substitution: CWTOT               
 Input CONCENTR.  nr:    2 is CONCENTR.  nr:    2 with ID  : POCW                 and local substitution: POCW                
 Input CONCENTR.  nr:    3 is CONCENTR.  nr:    3 with ID  : SSW                  and local substitution: SSW                 
 Input CONCENTR.  nr:    4 is CONCENTR.  nr:    4 with ID  : DOCW                 and local substitution: DOCW                
 Input CONCENTR.  nr:    5 is CONCENTR.  nr:    5 with ID  : AOCW                 and local substitution: AOCW                
 
 Column:  1 contains: CWTOT                                    Status: used    
 Column:  2 contains: POCW                                     Status: used    
 Column:  3 contains: SSW                                      Status: used    
 Column:  4 contains: DOCW                                     Status: used    
 Column:  5 contains: AOCW                                     Status: used    

 DATA grouped in         1 blocks of         5 Substance 
 Constant values in this block.
 Substance      1           2           3           4           5
 boundary     CWTOT       POCW        SSW         DOCW        AOCW        
         2    0.0000E+00  0.0000E+00  0.0000E+00  0.0000E+00  0.0000E+00

 ====> input item completed <==== 



 Closing file: \SBKRIVER\DEMO_10.LIT\1\BOUNDWQ.TYP                                           

 Continuing on file: delwaq.inp                                                                    

 Including file: \SBKRIVER\DEMO_10.LIT\1\BOUNDWQ.DAT                                                                                                                                                                                                                                                                                                                                                                                                                                                                                                                                                                                                                                                                                                                                                                                                                                                                                                                                                                                                     

 Closing file: \SBKRIVER\DEMO_10.LIT\1\BOUNDWQ.DAT                                           

 Continuing on file: delwaq.inp                                                                    

 Including file: ..\work\em2wq.dat                                                                                                                                                                                                                                                                                                                                                                                                                                                                                                                                                                                                                                                                                                                                                                                                                                                                                                                                                                                                                       

 Closing file: ..\work\em2wq.dat                                                             

 Continuing on file: delwaq.inp                                                                    

 Including file: \SBKRIVER\FIXED\RSDUMMY.DUM                                                                                                                                                                                                                                                                                                                                                                                                                                                                                                                                                                                                                                                                                                                                                                                                                                                                                                                                                                                                             

 Closing file: \SBKRIVER\FIXED\RSDUMMY.DUM                                                   

 Continuing on file: delwaq.inp                                                                    

 *********************************************************** B L O C K - 5 *****


 Including file: ..\WORK\nrofDWL.dat                                                                                                                                                                                                                                                                                                                                                                                                                                                                                                                                                                                                                                                                                                                                                                                                                                                                                                                                                                                                                     

 No waste loads 

 Closing file: ..\WORK\nrofDWL.dat                                                           

 Continuing on file: delwaq.inp                                                                    

 Including file: ..\WORK\Loadswq.id                                                                                                                                                                                                                                                                                                                                                                                                                                                                                                                                                                                                                                                                                                                                                                                                                                                                                                                                                                                                                      

 Closing file: ..\WORK\Loadswq.id                                                            

 Continuing on file: delwaq.inp                                                                    

 Including file: \SBKRIVER\DEMO_10.LIT\1\LOADSWQ.TYP                                                                                                                                                                                                                                                                                                                                                                                                                                                                                                                                                                                                                                                                                                                                                                                                                                                                                                                                                                                                     

 Closing file: \SBKRIVER\DEMO_10.LIT\1\LOADSWQ.TYP                                           

 Continuing on file: delwaq.inp                                                                    

 Including file: \SBKRIVER\DEMO_10.LIT\1\LOADSWQ.DAT                                                                                                                                                                                                                                                                                                                                                                                                                                                                                                                                                                                                                                                                                                                                                                                                                                                                                                                                                                                                     

 Closing file: \SBKRIVER\DEMO_10.LIT\1\LOADSWQ.DAT                                           

 Continuing on file: delwaq.inp                                                                    

 *********************************************************** B L O C K - 6 *****

 Input constant   nr:    1 is constant   nr:    1 with ID  : Iteration report    
 constant values in this block.
 values         1
 constants    Iteration   
         1    0.0000E+00

 ====> input item completed <==== 



 Including file: \SBKRIVER\DEMO_10.LIT\1\PROCESS.DWQ                                                                                                                                                                                                                                                                                                                                                                                                                                                                                                                                                                                                                                                                                                                                                                                                                                                                                                                                                                                                     
 Input constant   nr:    1 is constant   nr:    2 with ID  : ACTIVE_HydDuflow    
 Input constant   nr:    2 is constant   nr:    3 with ID  : ACTIVE_OMIVE        
 constant values in this block.
 values         2           3
 constants    ACTIVE_Hyd  ACTIVE_OMI  
         1    0.0000E+00  0.0000E+00

 ====> input item completed <==== 



 Closing file: \SBKRIVER\DEMO_10.LIT\1\PROCESS.DWQ                                           

 Continuing on file: delwaq.inp                                                                    

 Including file: \SBKRIVER\DEMO_10.LIT\1\CONSTANT.DWQ                                                                                                                                                                                                                                                                                                                                                                                                                                                                                                                                                                                                                                                                                                                                                                                                                                                                                                                                                                                                    
 Input constant   nr:    1 is constant   nr:    4 with ID  : ALFA                
 Input constant   nr:    2 is constant   nr:    5 with ID  : DZ                  
 Input constant   nr:    3 is constant   nr:    6 with ID  : EZ                  
 Input constant   nr:    4 is constant   nr:    7 with ID  : FC                  
 Input constant   nr:    5 is constant   nr:    8 with ID  : KPAOC               
 Input constant   nr:    6 is constant   nr:    9 with ID  : KPDOC               
 Input constant   nr:    7 is constant   nr:   10 with ID  : KPPOC               
 Input constant   nr:    8 is constant   nr:   11 with ID  : KDAOC               
 Input constant   nr:    9 is constant   nr:   12 with ID  : KDC                 
 Input constant   nr:   10 is constant   nr:   13 with ID  : KHYDW               
 Input constant   nr:   11 is constant   nr:   14 with ID  : KHYDB               
 Input constant   nr:   12 is constant   nr:   15 with ID  : KDMINW              
 Input constant   nr:   13 is constant   nr:   16 with ID  : KDMINB              
 Input constant   nr:   14 is constant   nr:   17 with ID  : KL                  
 Input constant   nr:   15 is constant   nr:   18 with ID  : POR                 
 Input constant   nr:   16 is constant   nr:   19 with ID  : RHOANO              
 Input constant   nr:   17 is constant   nr:   20 with ID  : RHOORG              
 Input constant   nr:   18 is constant   nr:   21 with ID  : VSN                 
 Input constant   nr:   19 is constant   nr:   22 with ID  : VSP                 
 Input constant   nr:   20 is constant   nr:   23 with ID  : VSS                 
 Input constant   nr:   21 is constant   nr:   24 with ID  : FRES                
 Input constant   nr:   22 is constant   nr:   25 with ID  : Fatm                
 Input constant   nr:   23 is constant   nr:   26 with ID  : PAOC                
 constant values in this block.
 values         4           5           6           7           8
 constants    ALFA        DZ          EZ          FC          KPAOC       
         1    5.0000E-01  1.0000E-01  5.0000E-05  5.2000E-01  4.9000E-03
 values         9          10          11          12          13
 constants    KPDOC       KPPOC       KDAOC       KDC         KHYDW       
         1    5.0000E-03  4.9000E-03  5.0000E-02  5.0000E-04  1.0000E-02
 values        14          15          16          17          18
 constants    KHYDB       KDMINW      KDMINB      KL          POR         
         1    5.0000E-05  4.0000E-02  1.5000E-02  1.9200E+00  8.0000E-01
 values        19          20          21          22          23
 constants    RHOANO      RHOORG      VSN         VSP         VSS         
         1    2.6000E+06  1.0000E+06  7.0000E-01  4.0000E-01  1.5000E+00
 values        24          25          26
 constants    FRES        Fatm        PAOC        
         1    1.5000E+01  0.0000E+00  1.0000E+00

 ====> input item completed <==== 


  
 Input function   nr:    1 is function   nr:    1 with ID  : PAOC                

 Time function is linearly interpolated.

 Closing file: \SBKRIVER\DEMO_10.LIT\1\CONSTANT.DWQ                                          

 Continuing on file: delwaq.inp                                                                    

 Including file: ..\work\param.dat                                                                                                                                                                                                                                                                                                                                                                                                                                                                                                                                                                                                                                                                                                                                                                                                                                                                                                                                                                                                                       

 number of breakpoints with full data:   61
 breakpoint   1 :-126230399
 values         1
 functions    PAOC        
         1    5.0000E-02
 breakpoint   2 :-123551999
 values         1
 functions    PAOC        
         1    1.0000E-01
 breakpoint   3 :-121046399
 values         1
 functions    PAOC        
         1    1.2000E-01
 breakpoint   4 :-118367999
 values         1
 functions    PAOC        
         1    2.5000E-01
 breakpoint   5 :-115775999
 values         1
 functions    PAOC        
         1    6.0000E-01
 breakpoint   6 :-113097599
 values         1
 functions    PAOC        
         1    8.0000E-01
 breakpoint   7 :-110505599
 values         1
 functions    PAOC        
         1    1.0000E+00
 breakpoint   8 :-107827199
 values         1
 functions    PAOC        
         1    9.0000E-01
 breakpoint   9 :-105148799
 values         1
 functions    PAOC        
         1    8.0000E-01
 breakpoint  10 :-102556799
 values         1
 functions    PAOC        
         1    6.0000E-01
 breakpoint  11 : -99878399
 values         1
 functions    PAOC        
         1    2.0000E-01
 breakpoint  12 : -97286399
 values         1
 functions    PAOC        
         1    1.0000E-01
 breakpoint  13 : -94607999
 values         1
 functions    PAOC        
         1    5.0000E-02
 breakpoint  14 : -91929599
 values         1
 functions    PAOC        
         1    1.0000E-01
 breakpoint  15 : -89510399
 values         1
 functions    PAOC        
         1    1.2000E-01
 breakpoint  16 : -86831999
 values         1
 functions    PAOC        
         1    2.5000E-01
 breakpoint  17 : -84239999
 values         1
 functions    PAOC        
         1    6.0000E-01
 breakpoint  18 : -81561599
 values         1
 functions    PAOC        
         1    8.0000E-01
 breakpoint  19 : -78969599
 values         1
 functions    PAOC        
         1    1.0000E+00
 breakpoint  20 : -76291199
 values         1
 functions    PAOC        
         1    9.0000E-01
 breakpoint  21 : -73612799
 values         1
 functions    PAOC        
         1    8.0000E-01
 breakpoint  22 : -71020799
 values         1
 functions    PAOC        
         1    6.0000E-01
 breakpoint  23 : -68342399
 values         1
 functions    PAOC        
         1    2.0000E-01
 breakpoint  24 : -65750399
 values         1
 functions    PAOC        
         1    1.0000E-01
 breakpoint  25 : -63071999
 values         1
 functions    PAOC        
         1    5.0000E-02
 breakpoint  26 : -60393599
 values         1
 functions    PAOC        
         1    1.0000E-01
 breakpoint  27 : -57974399
 values         1
 functions    PAOC        
         1    1.2000E-01
 breakpoint  28 : -55295999
 values         1
 functions    PAOC        
         1    2.5000E-01
 breakpoint  29 : -52703999
 values         1
 functions    PAOC        
         1    6.0000E-01
 breakpoint  30 : -50025599
 values         1
 functions    PAOC        
         1    8.0000E-01
 breakpoint  31 : -47433599
 values         1
 functions    PAOC        
         1    1.0000E+00
 breakpoint  32 : -44755199
 values         1
 functions    PAOC        
         1    9.0000E-01
 breakpoint  33 : -42076799
 values         1
 functions    PAOC        
         1    8.0000E-01
 breakpoint  34 : -39484799
 values         1
 functions    PAOC        
         1    6.0000E-01
 breakpoint  35 : -36806399
 values         1
 functions    PAOC        
         1    2.0000E-01
 breakpoint  36 : -34214399
 values         1
 functions    PAOC        
         1    1.0000E-01
 breakpoint  37 : -31535999
 values         1
 functions    PAOC        
         1    5.0000E-02
 breakpoint  38 : -28857599
 values         1
 functions    PAOC        
         1    1.0000E-01
 breakpoint  39 : -26438399
 values         1
 functions    PAOC        
         1    1.2000E-01
 breakpoint  40 : -23759999
 values         1
 functions    PAOC        
         1    2.5000E-01
 breakpoint  41 : -21167999
 values         1
 functions    PAOC        
         1    6.0000E-01
 breakpoint  42 : -18489599
 values         1
 functions    PAOC        
         1    8.0000E-01
 breakpoint  43 : -15897599
 values         1
 functions    PAOC        
         1    1.0000E+00
 breakpoint  44 : -13219199
 values         1
 functions    PAOC        
         1    9.0000E-01
 breakpoint  45 : -10540799
 values         1
 functions    PAOC        
         1    8.0000E-01
 breakpoint  46 :  -7948799
 values         1
 functions    PAOC        
         1    6.0000E-01
 breakpoint  47 :  -5270399
 values         1
 functions    PAOC        
         1    2.0000E-01
 breakpoint  48 :  -2678399
 values         1
 functions    PAOC        
         1    1.0000E-01
 breakpoint  49 :         0
 values         1
 functions    PAOC        
         1    5.0000E-02
 breakpoint  50 :   2678400
 values         1
 functions    PAOC        
         1    1.0000E-01
 breakpoint  51 :   5184000
 values         1
 functions    PAOC        
         1    1.2000E-01
 breakpoint  52 :   7862400
 values         1
 functions    PAOC        
         1    2.5000E-01
 breakpoint  53 :  10454400
 values         1
 functions    PAOC        
         1    6.0000E-01
 breakpoint  54 :  13132800
 values         1
 functions    PAOC        
         1    8.0000E-01
 breakpoint  55 :  15724800
 values         1
 functions    PAOC        
         1    1.0000E+00
 breakpoint  56 :  18403200
 values         1
 functions    PAOC        
         1    9.0000E-01
 breakpoint  57 :  21081600
 values         1
 functions    PAOC        
         1    8.0000E-01
 breakpoint  58 :  23673600
 values         1
 functions    PAOC        
         1    6.0000E-01
 breakpoint  59 :  26352000
 values         1
 functions    PAOC        
         1    2.0000E-01
 breakpoint  60 :  28944000
 values         1
 functions    PAOC        
         1    1.0000E-01
 breakpoint  61 :  31622400
 values         1
 functions    PAOC        
         1    5.0000E-02

 ====> input item completed <==== 


  
 Input parameter  nr:    1 is parameter  nr:    1 with ID  : Xseg                

 Input will be given for all          8 segments.

 parameter s ordered in groups of segments per parameter .
 constant values in this block.
 segments       1
 parameters   Xseg        
         1    4.6878E-01
         2    2.5050E+02
         3    5.0050E+02
         4    7.5050E+02
         5    1.0005E+03
         6    1.2505E+03
         7    1.5005E+03
         8    1.9995E+03

 ====> input item completed <==== 


  
 Input parameter  nr:    1 is parameter  nr:    2 with ID  : Yseg                

 Input will be given for all          8 segments.

 parameter s ordered in groups of segments per parameter .
 constant values in this block.
 segments       2
 parameters   Yseg        
         1    0.0000E+00
         2    0.0000E+00
         3    0.0000E+00
         4    0.0000E+00
         5    0.0000E+00
         6    0.0000E+00
         7    0.0000E+00
         8    0.0000E+00

 ====> input item completed <==== 



 Closing file: ..\work\param.dat                                                             

 Continuing on file: delwaq.inp                                                                    

 Including file: \SBKRIVER\FIXED\1996_0.QWC                                                                                                                                                                                                                                                                                                                                                                                                                                                                                                                                                                                                                                                                                                                                                                                                                                                                                                                                                                                                              
 Input constant   nr:    1 is constant   nr:   27 with ID  : VWIND               
 Input constant   nr:    2 is constant   nr:   28 with ID  : WINDDIR             
 constant values in this block.
 values        27          28
 constants    VWIND       WINDDIR     
         1    0.0000E+00  2.4100E+02

 ====> input item completed <==== 



 Closing file: \SBKRIVER\FIXED\1996_0.QWC                                                    

 Continuing on file: delwaq.inp                                                                    

 Including file: \SBKRIVER\FIXED\1996_0.QSC                                                                                                                                                                                                                                                                                                                                                                                                                                                                                                                                                                                                                                                                                                                                                                                                                                                                                                                                                                                                              
 Input constant   nr:    1 is constant   nr:   29 with ID  : NATTEMP             
 Input constant   nr:    2 is constant   nr:   30 with ID  : RAD                 
 constant values in this block.
 values        29          30
 constants    NATTEMP     RAD         
         1    1.8200E+01  5.0000E+01

 ====> input item completed <==== 



 Closing file: \SBKRIVER\FIXED\1996_0.QSC                                                    

 Continuing on file: delwaq.inp                                                                    
  
 Input seg-funct. nr:    1 is seg-funct. nr:    1 with ID  : Chezy               
 Input seg-funct. nr:    2 is seg-funct. nr:    2 with ID  : Surf                
 Input seg-funct. nr:    3 is seg-funct. nr:    3 with ID  : Velocity            
 Input seg-funct. nr:    4 is seg-funct. nr:    4 with ID  : Width               

 Input will be given for all          8 segments.

 seg-funct.s ordered in groups of segments per seg-funct..
 Input comes from binary file: ..\work\segfun.dat                                                                                                                                                                                                                                              
 info comes at runtime from binary file: ..\work\segfun.dat

 ====> input item completed <==== 



 Total number of constants        :   30

 Total number of parameters       :    2

 Total number of functions        :    1

 Total number of segment functions:    4

 *********************************************************** B L O C K - 7 *****


 Including file: ..\work\wq2.dat                                                                                                                                                                                                                                                                                                                                                                                                                                                                                                                                                                                                                                                                                                                                                                                                                                                                                                                                                                                                                         

 Option selected for initials    :   0

 Information from unformatted intermediate file.
 Filename is: ..\work\wqres.res                                                                                                                                                                                                                                              
 WARNING file does not exist.
 Filename: ..\work\wqres.res                                                                                                                                                                                                                                              

 Closing file: ..\work\wq2.dat                                                               

 Continuing on file: delwaq.inp                                                                    

 *********************************************************** B L O C K - 8 *****



 Option selected for output specification :   1
 Information from the standard input file.

 Specification of monitor output

 Default output for this file

 Specification of grid dump output

 No output for this file

 Specification of history output

 Including file: hisvar.dat                                                                                                                                                                                                                                                                                                                                                                                                                                                                                                                                                                                                                                                                                                                                                                                                                                                                                                                                                                                                                              

 All substances plus extra output variables

 Including file: \SBKRIVER\DEMO_10.LIT\1\OUTPUT.DWQ                                                                                                                                                                                                                                                                                                                                                                                                                                                                                                                                                                                                                                                                                                                                                                                                                                                                                                                                                                                                      

 (     43) number of output variables specified

 Number           Identification        Weight variable
       1           Winddir               volume              
       2           Vwind                 volume              
       3           Temp                  volume              
       4           Rad                   volume              
       5           Volume                                    
       6           Surf                                      
       7           CBDIS                 volume              
       8           CBDOC                 volume              
       9           CBPOC                 volume              
      10           CIW                   volume              
      11           CSSB                  volume              
      12           CSSW                  volume              
      13           CSUBDIS               volume              
      14           CSUBDOC               volume              
      15           CWAOC                 volume              
      16           CWDIS                 volume              
      17           CWDOC                 volume              
      18           CWPOC                 volume              
      19           dt                    volume              
      20           EZ2                   volume              
      21           FCSSB                 volume              
      22           FCSSW                 volume              
      23           FOMB                  volume              
      24           FOMW                  volume              
      25           FSPOC                 volume              
      26           FSSB                  volume              
      27           FSSW                  volume              
      28           Mafb1                 volume              
      29           Mafb2                 volume              
      30           Matm                  volume              
      31           Mdif1                 volume              
      32           Mdif2                 volume              
      33           Mpsad1                volume              
      34           Mpsad2                volume              
      35           Mres                  volume              
      36           Msed                  volume              
      37           Mverv                 volume              
      38           RHOSSB                volume              
      39           RHOSSW                volume              
      40           SSB                   volume              
      41           VR                    volume              
      42           VS                    volume              
      43           Z                     volume              

 Specification of map output

 Closing file: \SBKRIVER\DEMO_10.LIT\1\OUTPUT.DWQ                                            

 Continuing on file: hisvar.dat                                                                    

 Closing file: hisvar.dat                                                                    

 Continuing on file: delwaq.inp                                                                    

 Including file: mapvar.dat                                                                                                                                                                                                                                                                                                                                                                                                                                                                                                                                                                                                                                                                                                                                                                                                                                                                                                                                                                                                                              

 Default output for this file

 Closing file: mapvar.dat                                                                    

 Continuing on file: delwaq.inp                                                                    

 Binary history file switched on

 Binary map file switched on

 NEFIS history file switched off

 NEFIS map file switched off

 NO BALANCE output : balance option not active !
 
  Determining the place of the output variables
 
        Winddir             ; Using constant nr          28
        Vwind               ; Using constant nr          27
   INFO:Temp                ; NOT FOUND, delwaq1p will detect variables from process library
        Rad                 ; Using constant nr          30
        Volume              ; Using DELWAQ VOLUME
        Surf                ; Using segment function nr           2
   INFO:CBDIS               ; NOT FOUND, delwaq1p will detect variables from process library
   INFO:CBDOC               ; NOT FOUND, delwaq1p will detect variables from process library
   INFO:CBPOC               ; NOT FOUND, delwaq1p will detect variables from process library
   INFO:CIW                 ; NOT FOUND, delwaq1p will detect variables from process library
   INFO:CSSB                ; NOT FOUND, delwaq1p will detect variables from process library
   INFO:CSSW                ; NOT FOUND, delwaq1p will detect variables from process library
   INFO:CSUBDIS             ; NOT FOUND, delwaq1p will detect variables from process library
   INFO:CSUBDOC             ; NOT FOUND, delwaq1p will detect variables from process library
   INFO:CWAOC               ; NOT FOUND, delwaq1p will detect variables from process library
   INFO:CWDIS               ; NOT FOUND, delwaq1p will detect variables from process library
   INFO:CWDOC               ; NOT FOUND, delwaq1p will detect variables from process library
   INFO:CWPOC               ; NOT FOUND, delwaq1p will detect variables from process library
   INFO:dt                  ; NOT FOUND, delwaq1p will detect variables from process library
   INFO:EZ2                 ; NOT FOUND, delwaq1p will detect variables from process library
   INFO:FCSSB               ; NOT FOUND, delwaq1p will detect variables from process library
   INFO:FCSSW               ; NOT FOUND, delwaq1p will detect variables from process library
   INFO:FOMB                ; NOT FOUND, delwaq1p will detect variables from process library
   INFO:FOMW                ; NOT FOUND, delwaq1p will detect variables from process library
   INFO:FSPOC               ; NOT FOUND, delwaq1p will detect variables from process library
   INFO:FSSB                ; NOT FOUND, delwaq1p will detect variables from process library
   INFO:FSSW                ; NOT FOUND, delwaq1p will detect variables from process library
   INFO:Mafb1               ; NOT FOUND, delwaq1p will detect variables from process library
   INFO:Mafb2               ; NOT FOUND, delwaq1p will detect variables from process library
   INFO:Matm                ; NOT FOUND, delwaq1p will detect variables from process library
   INFO:Mdif1               ; NOT FOUND, delwaq1p will detect variables from process library
   INFO:Mdif2               ; NOT FOUND, delwaq1p will detect variables from process library
   INFO:Mpsad1              ; NOT FOUND, delwaq1p will detect variables from process library
   INFO:Mpsad2              ; NOT FOUND, delwaq1p will detect variables from process library
   INFO:Mres                ; NOT FOUND, delwaq1p will detect variables from process library
   INFO:Msed                ; NOT FOUND, delwaq1p will detect variables from process library
   INFO:Mverv               ; NOT FOUND, delwaq1p will detect variables from process library
   INFO:RHOSSB              ; NOT FOUND, delwaq1p will detect variables from process library
   INFO:RHOSSW              ; NOT FOUND, delwaq1p will detect variables from process library
   INFO:SSB                 ; NOT FOUND, delwaq1p will detect variables from process library
   INFO:VR                  ; NOT FOUND, delwaq1p will detect variables from process library
   INFO:VS                  ; NOT FOUND, delwaq1p will detect variables from process library
   INFO:Z                   ; NOT FOUND, delwaq1p will detect variables from process library
        volume              ; Using DELWAQ VOLUME
        volume              ; Using DELWAQ VOLUME
        volume              ; Using DELWAQ VOLUME
        volume              ; Using DELWAQ VOLUME
        volume              ; Using DELWAQ VOLUME
        volume              ; Using DELWAQ VOLUME
        volume              ; Using DELWAQ VOLUME
        volume              ; Using DELWAQ VOLUME
        volume              ; Using DELWAQ VOLUME
        volume              ; Using DELWAQ VOLUME
        volume              ; Using DELWAQ VOLUME
        volume              ; Using DELWAQ VOLUME
        volume              ; Using DELWAQ VOLUME
        volume              ; Using DELWAQ VOLUME
        volume              ; Using DELWAQ VOLUME
        volume              ; Using DELWAQ VOLUME
        volume              ; Using DELWAQ VOLUME
        volume              ; Using DELWAQ VOLUME
        volume              ; Using DELWAQ VOLUME
        volume              ; Using DELWAQ VOLUME
        volume              ; Using DELWAQ VOLUME
        volume              ; Using DELWAQ VOLUME
        volume              ; Using DELWAQ VOLUME
        volume              ; Using DELWAQ VOLUME
        volume              ; Using DELWAQ VOLUME
        volume              ; Using DELWAQ VOLUME
        volume              ; Using DELWAQ VOLUME
        volume              ; Using DELWAQ VOLUME
        volume              ; Using DELWAQ VOLUME
        volume              ; Using DELWAQ VOLUME
        volume              ; Using DELWAQ VOLUME
        volume              ; Using DELWAQ VOLUME
        volume              ; Using DELWAQ VOLUME
        volume              ; Using DELWAQ VOLUME
        volume              ; Using DELWAQ VOLUME
        volume              ; Using DELWAQ VOLUME
        volume              ; Using DELWAQ VOLUME
        volume              ; Using DELWAQ VOLUME
        volume              ; Using DELWAQ VOLUME
        volume              ; Using DELWAQ VOLUME
        volume              ; Using DELWAQ VOLUME
  Not all variables available.
  Number off missing variables :          38

 *********************************************************** B L O C K - 9 *****


 Output operations
Number of periods defined:     0
 

 *********************************************************** B L O C K -10 *****



 Messages presented in this .lst file:

 Number of WARNINGS            :  6
 Number of ERRORS during input :  0
 


 Messages presented including .lsp file:
 Number of WARNINGS            :     7

 Number of ERRORS during input :     0

 Parallel processing with   1 processor(s)

 total real      array space:       2566
 total integer   array space:       3384
 total character array space:       1077
 grand total in 4-byte words:       7027 =   0-GB   0-MB  28-KB 108-Byte.
 Execution stop : 2012/07/02 11:42:13 
