  Using options from ini file : delwaq.ini
 Delft3D-WAQ version  4.5212 17-06-2011
 Only to be used by Buffel                                  
 (c) Deltares
 Execution start: 2012/07/02 11:42:17 

 Parallel processing with   1 processor(s)

 total real      array space:       2566
 total integer   array space:       3384
 total character array space:       5377
 grand total in 4-byte words:      11327 =   0-GB   0-MB  45-KB 308-Byte.
1                    Water quality calculation Sobek-WQ      
                                                             

                                                             
                     T0: 1996.01.01 00:00:00  (scu=       1s)

                     Initialisation from system file completed.

 No process decomposition active
 partit: noseg,nolay=           8           1 , nseghr=           8
 partit: npart=  1, assigning all segments to part "npart", none to other parts
 
 CONSTANT ON UNIT:        22, READING: delwaq-dispersi.wrk                                                                                                                                                                                                                                            
 SIMULATION TIME :    0D  0H  0M  0S ! 
 TIME IN FILE    :    0D  0H  0M  0S ! 
 CONSTANT ON UNIT:        26, READING: ..\WORK\Length.dat                                                                                                                                                                                                                                             
 SIMULATION TIME :    0D  0H  0M  0S ! 
 TIME IN FILE    :    0D  0H  0M  0S ! 
  Closure error correction disabled
 
 Initialising numerical options for method 15...18
 
 Preconditioner switch not found, using default
 switch = 3, corrections based on lower and upper 
 
 Maximum number of iterations not found, using default
 Maximum number of iterations set to :   100
 Maximum number of vectors is:    11
 
 Relative tolerance not found, using default
 Relative tolerance set to :0.100E-06
 
 Scaling switch not found, using default
 switch = 1, scaling is switched on
 
 Iteration report switch found in input
 switch = 0, iteration report is switched off
 
 Extra functionality DLWQTR
 End extra functionality DLWQTR
  -openpb command line argument found
  using dll : C:\d3dwaq_openpl.dll
1
                                             Water quality calculation Sobek-WQ      
                                                                                     
                                                                              mass/m2
                                             T0: 1996.01.01 00:00:00  (scu=       1s)
   0.00% Completed


 DUMP OF INTERMEDIATE RESULTS IN SELECTED SEGMENTS
  TIME =   0D  0H  0M  0S .
 
 TOTAL MASS IN SYSTEM 1.6000E+00 3.0000E+04 2.0000E+05 1.0000E+04 2.0000E+04 9.8000E+05 6.6500E+08 9.8000E+05 6.6500E+08 3.0520E+04
 CHANGES BY PROCESSES 0.0000E+00 0.0000E+00 0.0000E+00 0.0000E+00 0.0000E+00 0.0000E+00 0.0000E+00 0.0000E+00 0.0000E+00 0.0000E+00
 CHANGES BY LOADS     0.0000E+00 0.0000E+00 0.0000E+00 0.0000E+00 0.0000E+00 0.0000E+00 0.0000E+00 0.0000E+00 0.0000E+00 0.0000E+00
 BOUNDARY INFLOWS     0.0000E+00 0.0000E+00 0.0000E+00 0.0000E+00 0.0000E+00 0.0000E+00 0.0000E+00 0.0000E+00 0.0000E+00 0.0000E+00
 BOUNDARY OUTFLOWS    0.0000E+00 0.0000E+00 0.0000E+00 0.0000E+00 0.0000E+00 0.0000E+00 0.0000E+00 0.0000E+00 0.0000E+00 0.0000E+00
                      CWTOT      POCW       SSW        DOCW       AOCW       DOCB       POCB       DOCSUB     POCSUB     CBTOT      
                                                                                                                                    
 CONCENTRATION                           
 obs_1                8.0000E-05 1.5000E+00 1.0000E+01 5.0000E-01 1.0000E+00 7.0000E+01 4.7500E+04 7.0000E+01 4.7500E+04 2.1800E+00
 SWT_Normal           8.0000E-05 1.5000E+00 1.0000E+01 5.0000E-01 1.0000E+00 7.0000E+01 4.7500E+04 7.0000E+01 4.7500E+04 2.1800E+00
 
 TOTAL MASS IN SYSTEM 3.0520E+04
 CHANGES BY PROCESSES 0.0000E+00
 CHANGES BY LOADS     0.0000E+00
 BOUNDARY INFLOWS     0.0000E+00
 BOUNDARY OUTFLOWS    0.0000E+00
                      CSUBT      
                                 
 CONCENTRATION                           
 obs_1                2.1800E+00
 SWT_Normal           2.1800E+00
 
   1.91% Completed


 DUMP OF INTERMEDIATE RESULTS IN SELECTED SEGMENTS
  TIME =   7D  0H  0M  0S .
 
 TOTAL MASS IN SYSTEM 1.5007E+00 5.3375E+04 1.9920E+05 1.8329E+04 3.4890E+03 1.0336E+06 6.6426E+08 9.8000E+05 6.6500E+08 3.0402E+04
 CHANGES BY PROCESSES-9.9297E-02 2.3375E+04-7.9588E+02 8.3291E+03-1.6511E+04 5.3617E+04-7.4269E+05 0.0000E+00 0.0000E+00-1.1803E+02
 CHANGES BY LOADS     0.0000E+00 0.0000E+00 0.0000E+00 0.0000E+00 0.0000E+00 0.0000E+00 0.0000E+00 0.0000E+00 0.0000E+00 0.0000E+00
 BOUNDARY INFLOWS     0.0000E+00 0.0000E+00 0.0000E+00 0.0000E+00 0.0000E+00 0.0000E+00 0.0000E+00 0.0000E+00 0.0000E+00 0.0000E+00
 BOUNDARY OUTFLOWS    0.0000E+00 0.0000E+00 0.0000E+00 0.0000E+00 0.0000E+00 0.0000E+00 0.0000E+00 0.0000E+00 0.0000E+00 0.0000E+00
                      CWTOT      POCW       SSW        DOCW       AOCW       DOCB       POCB       DOCSUB     POCSUB     CBTOT      
                                                                                                                                    
 CONCENTRATION                           
 obs_1                7.5035E-05 2.6688E+00 9.9602E+00 9.1646E-01 1.7445E-01 7.3830E+01 4.7447E+04 7.0000E+01 4.7500E+04 2.1716E+00
 SWT_Normal           7.5035E-05 2.6688E+00 9.9602E+00 9.1646E-01 1.7445E-01 7.3830E+01 4.7447E+04 7.0000E+01 4.7500E+04 2.1716E+00
 
 TOTAL MASS IN SYSTEM 3.0520E+04
 CHANGES BY PROCESSES 0.0000E+00
 CHANGES BY LOADS     0.0000E+00
 BOUNDARY INFLOWS     0.0000E+00
 BOUNDARY OUTFLOWS    0.0000E+00
                      CSUBT      
                                 
 CONCENTRATION                           
 obs_1                2.1800E+00
 SWT_Normal           2.1800E+00
 
1
                                             Water quality calculation Sobek-WQ      
                                                                                     
                                                                              mass/m2
                                             T0: 1996.01.01 00:00:00  (scu=       1s)
   3.82% Completed


 DUMP OF INTERMEDIATE RESULTS IN SELECTED SEGMENTS
  TIME =  14D  0H  0M  0S .
 
 TOTAL MASS IN SYSTEM 1.4985E+00 5.3365E+04 1.9916E+05 2.4297E+04 2.9383E+03 1.0774E+06 6.6348E+08 9.8000E+05 6.6500E+08 3.0279E+04
 CHANGES BY PROCESSES-2.1926E-03-1.0521E+01-4.8750E+01 5.9675E+03-5.5073E+02 4.3819E+04-7.7450E+05 0.0000E+00 0.0000E+00-1.2315E+02
 CHANGES BY LOADS     0.0000E+00 0.0000E+00 0.0000E+00 0.0000E+00 0.0000E+00 0.0000E+00 0.0000E+00 0.0000E+00 0.0000E+00 0.0000E+00
 BOUNDARY INFLOWS     0.0000E+00 0.0000E+00 0.0000E+00 0.0000E+00 0.0000E+00 0.0000E+00 0.0000E+00 0.0000E+00 0.0000E+00 0.0000E+00
 BOUNDARY OUTFLOWS    0.0000E+00 0.0000E+00 0.0000E+00 0.0000E+00 0.0000E+00 0.0000E+00 0.0000E+00 0.0000E+00 0.0000E+00 0.0000E+00
                      CWTOT      POCW       SSW        DOCW       AOCW       DOCB       POCB       DOCSUB     POCSUB     CBTOT      
                                                                                                                                    
 CONCENTRATION                           
 obs_1                7.4926E-05 2.6682E+00 9.9578E+00 1.2148E+00 1.4691E-01 7.6960E+01 4.7392E+04 7.0000E+01 4.7500E+04 2.1628E+00
 SWT_Normal           7.4926E-05 2.6682E+00 9.9578E+00 1.2148E+00 1.4691E-01 7.6960E+01 4.7392E+04 7.0000E+01 4.7500E+04 2.1628E+00
 
 TOTAL MASS IN SYSTEM 3.0520E+04
 CHANGES BY PROCESSES 0.0000E+00
 CHANGES BY LOADS     0.0000E+00
 BOUNDARY INFLOWS     0.0000E+00
 BOUNDARY OUTFLOWS    0.0000E+00
                      CSUBT      
                                 
 CONCENTRATION                           
 obs_1                2.1800E+00
 SWT_Normal           2.1800E+00
 
   5.74% Completed


 DUMP OF INTERMEDIATE RESULTS IN SELECTED SEGMENTS
  TIME =  21D  0H  0M  0S .
 
 TOTAL MASS IN SYSTEM 1.4958E+00 5.3295E+04 1.9917E+05 2.9029E+04 3.3548E+03 1.1133E+06 6.6271E+08 9.8000E+05 6.6500E+08 3.0156E+04
 CHANGES BY PROCESSES-2.7243E-03-6.9633E+01 1.9094E+01 4.7323E+03 4.1658E+02 3.5878E+04-7.6891E+05 0.0000E+00 0.0000E+00-1.2240E+02
 CHANGES BY LOADS     0.0000E+00 0.0000E+00 0.0000E+00 0.0000E+00 0.0000E+00 0.0000E+00 0.0000E+00 0.0000E+00 0.0000E+00 0.0000E+00
 BOUNDARY INFLOWS     0.0000E+00 0.0000E+00 0.0000E+00 0.0000E+00 0.0000E+00 0.0000E+00 0.0000E+00 0.0000E+00 0.0000E+00 0.0000E+00
 BOUNDARY OUTFLOWS    0.0000E+00 0.0000E+00 0.0000E+00 0.0000E+00 0.0000E+00 0.0000E+00 0.0000E+00 0.0000E+00 0.0000E+00 0.0000E+00
                      CWTOT      POCW       SSW        DOCW       AOCW       DOCB       POCB       DOCSUB     POCSUB     CBTOT      
                                                                                                                                    
 CONCENTRATION                           
 obs_1                7.4789E-05 2.6647E+00 9.9587E+00 1.4514E+00 1.6774E-01 7.9522E+01 4.7337E+04 7.0000E+01 4.7500E+04 2.1540E+00
 SWT_Normal           7.4789E-05 2.6647E+00 9.9587E+00 1.4514E+00 1.6774E-01 7.9522E+01 4.7337E+04 7.0000E+01 4.7500E+04 2.1540E+00
 
 TOTAL MASS IN SYSTEM 3.0520E+04
 CHANGES BY PROCESSES 0.0000E+00
 CHANGES BY LOADS     0.0000E+00
 BOUNDARY INFLOWS     0.0000E+00
 BOUNDARY OUTFLOWS    0.0000E+00
                      CSUBT      
                                 
 CONCENTRATION                           
 obs_1                2.1800E+00
 SWT_Normal           2.1800E+00
 
1
                                             Water quality calculation Sobek-WQ      
                                                                                     
                                                                              mass/m2
                                             T0: 1996.01.01 00:00:00  (scu=       1s)
   7.65% Completed


 DUMP OF INTERMEDIATE RESULTS IN SELECTED SEGMENTS
  TIME =  28D  0H  0M  0S .
 
 TOTAL MASS IN SYSTEM 1.4924E+00 5.3234E+04 1.9920E+05 3.2848E+04 3.8300E+03 1.1426E+06 6.6196E+08 9.8000E+05 6.6500E+08 3.0035E+04
 CHANGES BY PROCESSES-3.3538E-03-6.1133E+01 2.2797E+01 3.8188E+03 4.7520E+02 2.9331E+04-7.5585E+05 0.0000E+00 0.0000E+00-1.2164E+02
 CHANGES BY LOADS     0.0000E+00 0.0000E+00 0.0000E+00 0.0000E+00 0.0000E+00 0.0000E+00 0.0000E+00 0.0000E+00 0.0000E+00 0.0000E+00
 BOUNDARY INFLOWS     0.0000E+00 0.0000E+00 0.0000E+00 0.0000E+00 0.0000E+00 0.0000E+00 0.0000E+00 0.0000E+00 0.0000E+00 0.0000E+00
 BOUNDARY OUTFLOWS    0.0000E+00 0.0000E+00 0.0000E+00 0.0000E+00 0.0000E+00 0.0000E+00 0.0000E+00 0.0000E+00 0.0000E+00 0.0000E+00
                      CWTOT      POCW       SSW        DOCW       AOCW       DOCB       POCB       DOCSUB     POCSUB     CBTOT      
                                                                                                                                    
 CONCENTRATION                           
 obs_1                7.4622E-05 2.6617E+00 9.9599E+00 1.6424E+00 1.9150E-01 8.1618E+01 4.7283E+04 7.0000E+01 4.7500E+04 2.1453E+00
 SWT_Normal           7.4622E-05 2.6617E+00 9.9599E+00 1.6424E+00 1.9150E-01 8.1618E+01 4.7283E+04 7.0000E+01 4.7500E+04 2.1453E+00
 
 TOTAL MASS IN SYSTEM 3.0520E+04
 CHANGES BY PROCESSES 0.0000E+00
 CHANGES BY LOADS     0.0000E+00
 BOUNDARY INFLOWS     0.0000E+00
 BOUNDARY OUTFLOWS    0.0000E+00
                      CSUBT      
                                 
 CONCENTRATION                           
 obs_1                2.1800E+00
 SWT_Normal           2.1800E+00
 
   9.56% Completed


 DUMP OF INTERMEDIATE RESULTS IN SELECTED SEGMENTS
  TIME =  35D  0H  0M  0S .
 
 TOTAL MASS IN SYSTEM 1.4886E+00 5.3174E+04 1.9922E+05 3.5947E+04 4.2469E+03 1.1666E+06 6.6122E+08 9.8000E+05 6.6500E+08 2.9914E+04
 CHANGES BY PROCESSES-3.8751E-03-6.0090E+01 2.1375E+01 3.0991E+03 4.1686E+02 2.3938E+04-7.4249E+05 0.0000E+00 0.0000E+00-1.2087E+02
 CHANGES BY LOADS     0.0000E+00 0.0000E+00 0.0000E+00 0.0000E+00 0.0000E+00 0.0000E+00 0.0000E+00 0.0000E+00 0.0000E+00 0.0000E+00
 BOUNDARY INFLOWS     0.0000E+00 0.0000E+00 0.0000E+00 0.0000E+00 0.0000E+00 0.0000E+00 0.0000E+00 0.0000E+00 0.0000E+00 0.0000E+00
 BOUNDARY OUTFLOWS    0.0000E+00 0.0000E+00 0.0000E+00 0.0000E+00 0.0000E+00 0.0000E+00 0.0000E+00 0.0000E+00 0.0000E+00 0.0000E+00
                      CWTOT      POCW       SSW        DOCW       AOCW       DOCB       POCB       DOCSUB     POCSUB     CBTOT      
                                                                                                                                    
 CONCENTRATION                           
 obs_1                7.4428E-05 2.6587E+00 9.9609E+00 1.7973E+00 2.1234E-01 8.3327E+01 4.7230E+04 7.0000E+01 4.7500E+04 2.1367E+00
 SWT_Normal           7.4428E-05 2.6587E+00 9.9609E+00 1.7973E+00 2.1234E-01 8.3327E+01 4.7230E+04 7.0000E+01 4.7500E+04 2.1367E+00
 
 TOTAL MASS IN SYSTEM 3.0520E+04
 CHANGES BY PROCESSES 0.0000E+00
 CHANGES BY LOADS     0.0000E+00
 BOUNDARY INFLOWS     0.0000E+00
 BOUNDARY OUTFLOWS    0.0000E+00
                      CSUBT      
                                 
 CONCENTRATION                           
 obs_1                2.1800E+00
 SWT_Normal           2.1800E+00
 
1
                                             Water quality calculation Sobek-WQ      
                                                                                     
                                                                              mass/m2
                                             T0: 1996.01.01 00:00:00  (scu=       1s)
  11.47% Completed


 DUMP OF INTERMEDIATE RESULTS IN SELECTED SEGMENTS
  TIME =  42D  0H  0M  0S .
 
 TOTAL MASS IN SYSTEM 1.4842E+00 5.3105E+04 1.9923E+05 3.8451E+04 4.4742E+03 1.1861E+06 6.6048E+08 9.8000E+05 6.6500E+08 2.9794E+04
 CHANGES BY PROCESSES-4.3417E-03-6.8570E+01 1.2125E+01 2.5045E+03 2.2726E+02 1.9495E+04-7.3217E+05 0.0000E+00 0.0000E+00-1.2007E+02
 CHANGES BY LOADS     0.0000E+00 0.0000E+00 0.0000E+00 0.0000E+00 0.0000E+00 0.0000E+00 0.0000E+00 0.0000E+00 0.0000E+00 0.0000E+00
 BOUNDARY INFLOWS     0.0000E+00 0.0000E+00 0.0000E+00 0.0000E+00 0.0000E+00 0.0000E+00 0.0000E+00 0.0000E+00 0.0000E+00 0.0000E+00
 BOUNDARY OUTFLOWS    0.0000E+00 0.0000E+00 0.0000E+00 0.0000E+00 0.0000E+00 0.0000E+00 0.0000E+00 0.0000E+00 0.0000E+00 0.0000E+00
                      CWTOT      POCW       SSW        DOCW       AOCW       DOCB       POCB       DOCSUB     POCSUB     CBTOT      
                                                                                                                                    
 CONCENTRATION                           
 obs_1                7.4211E-05 2.6553E+00 9.9615E+00 1.9226E+00 2.2371E-01 8.4720E+01 4.7177E+04 7.0000E+01 4.7500E+04 2.1281E+00
 SWT_Normal           7.4211E-05 2.6553E+00 9.9615E+00 1.9226E+00 2.2371E-01 8.4720E+01 4.7177E+04 7.0000E+01 4.7500E+04 2.1281E+00
 
 TOTAL MASS IN SYSTEM 3.0520E+04
 CHANGES BY PROCESSES 0.0000E+00
 CHANGES BY LOADS     0.0000E+00
 BOUNDARY INFLOWS     0.0000E+00
 BOUNDARY OUTFLOWS    0.0000E+00
                      CSUBT      
                                 
 CONCENTRATION                           
 obs_1                2.1800E+00
 SWT_Normal           2.1800E+00
 
  13.39% Completed


 DUMP OF INTERMEDIATE RESULTS IN SELECTED SEGMENTS
  TIME =  49D  0H  0M  0S .
 
 TOTAL MASS IN SYSTEM 1.4795E+00 5.3035E+04 1.9924E+05 4.0468E+04 4.6803E+03 1.2019E+06 6.5976E+08 9.8000E+05 6.6500E+08 2.9675E+04
 CHANGES BY PROCESSES-4.6817E-03-7.0189E+01 1.0766E+01 2.0172E+03 2.0617E+02 1.5836E+04-7.2406E+05 0.0000E+00 0.0000E+00-1.1926E+02
 CHANGES BY LOADS     0.0000E+00 0.0000E+00 0.0000E+00 0.0000E+00 0.0000E+00 0.0000E+00 0.0000E+00 0.0000E+00 0.0000E+00 0.0000E+00
 BOUNDARY INFLOWS     0.0000E+00 0.0000E+00 0.0000E+00 0.0000E+00 0.0000E+00 0.0000E+00 0.0000E+00 0.0000E+00 0.0000E+00 0.0000E+00
 BOUNDARY OUTFLOWS    0.0000E+00 0.0000E+00 0.0000E+00 0.0000E+00 0.0000E+00 0.0000E+00 0.0000E+00 0.0000E+00 0.0000E+00 0.0000E+00
                      CWTOT      POCW       SSW        DOCW       AOCW       DOCB       POCB       DOCSUB     POCSUB     CBTOT      
                                                                                                                                    
 CONCENTRATION                           
 obs_1                7.3977E-05 2.6517E+00 9.9621E+00 2.0234E+00 2.3402E-01 8.5851E+01 4.7126E+04 7.0000E+01 4.7500E+04 2.1196E+00
 SWT_Normal           7.3977E-05 2.6517E+00 9.9621E+00 2.0234E+00 2.3402E-01 8.5851E+01 4.7126E+04 7.0000E+01 4.7500E+04 2.1196E+00
 
 TOTAL MASS IN SYSTEM 3.0520E+04
 CHANGES BY PROCESSES 0.0000E+00
 CHANGES BY LOADS     0.0000E+00
 BOUNDARY INFLOWS     0.0000E+00
 BOUNDARY OUTFLOWS    0.0000E+00
                      CSUBT      
                                 
 CONCENTRATION                           
 obs_1                2.1800E+00
 SWT_Normal           2.1800E+00
 
1
                                             Water quality calculation Sobek-WQ      
                                                                                     
                                                                              mass/m2
                                             T0: 1996.01.01 00:00:00  (scu=       1s)
  15.30% Completed


 DUMP OF INTERMEDIATE RESULTS IN SELECTED SEGMENTS
  TIME =  56D  0H  0M  0S .
 
 TOTAL MASS IN SYSTEM 1.4746E+00 5.2966E+04 1.9925E+05 4.2098E+04 4.8852E+03 1.2147E+06 6.5904E+08 9.8000E+05 6.6500E+08 2.9556E+04
 CHANGES BY PROCESSES-4.9414E-03-6.9438E+01 1.0641E+01 1.6297E+03 2.0489E+02 1.2822E+04-7.1617E+05 0.0000E+00 0.0000E+00-1.1845E+02
 CHANGES BY LOADS     0.0000E+00 0.0000E+00 0.0000E+00 0.0000E+00 0.0000E+00 0.0000E+00 0.0000E+00 0.0000E+00 0.0000E+00 0.0000E+00
 BOUNDARY INFLOWS     0.0000E+00 0.0000E+00 0.0000E+00 0.0000E+00 0.0000E+00 0.0000E+00 0.0000E+00 0.0000E+00 0.0000E+00 0.0000E+00
 BOUNDARY OUTFLOWS    0.0000E+00 0.0000E+00 0.0000E+00 0.0000E+00 0.0000E+00 0.0000E+00 0.0000E+00 0.0000E+00 0.0000E+00 0.0000E+00
                      CWTOT      POCW       SSW        DOCW       AOCW       DOCB       POCB       DOCSUB     POCSUB     CBTOT      
                                                                                                                                    
 CONCENTRATION                           
 obs_1                7.3730E-05 2.6483E+00 9.9626E+00 2.1049E+00 2.4426E-01 8.6767E+01 4.7074E+04 7.0000E+01 4.7500E+04 2.1112E+00
 SWT_Normal           7.3730E-05 2.6483E+00 9.9626E+00 2.1049E+00 2.4426E-01 8.6767E+01 4.7074E+04 7.0000E+01 4.7500E+04 2.1112E+00
 
 TOTAL MASS IN SYSTEM 3.0520E+04
 CHANGES BY PROCESSES 0.0000E+00
 CHANGES BY LOADS     0.0000E+00
 BOUNDARY INFLOWS     0.0000E+00
 BOUNDARY OUTFLOWS    0.0000E+00
                      CSUBT      
                                 
 CONCENTRATION                           
 obs_1                2.1800E+00
 SWT_Normal           2.1800E+00
 
  17.21% Completed


 DUMP OF INTERMEDIATE RESULTS IN SELECTED SEGMENTS
  TIME =  63D  0H  0M  0S .
 
 TOTAL MASS IN SYSTEM 1.4695E+00 5.2898E+04 1.9927E+05 4.3421E+04 5.2210E+03 1.2251E+06 6.5833E+08 9.8000E+05 6.6500E+08 2.9438E+04
 CHANGES BY PROCESSES-5.1296E-03-6.7291E+01 1.2984E+01 1.3231E+03 3.3579E+02 1.0341E+04-7.0820E+05 0.0000E+00 0.0000E+00-1.1763E+02
 CHANGES BY LOADS     0.0000E+00 0.0000E+00 0.0000E+00 0.0000E+00 0.0000E+00 0.0000E+00 0.0000E+00 0.0000E+00 0.0000E+00 0.0000E+00
 BOUNDARY INFLOWS     0.0000E+00 0.0000E+00 0.0000E+00 0.0000E+00 0.0000E+00 0.0000E+00 0.0000E+00 0.0000E+00 0.0000E+00 0.0000E+00
 BOUNDARY OUTFLOWS    0.0000E+00 0.0000E+00 0.0000E+00 0.0000E+00 0.0000E+00 0.0000E+00 0.0000E+00 0.0000E+00 0.0000E+00 0.0000E+00
                      CWTOT      POCW       SSW        DOCW       AOCW       DOCB       POCB       DOCSUB     POCSUB     CBTOT      
                                                                                                                                    
 CONCENTRATION                           
 obs_1                7.3473E-05 2.6449E+00 9.9633E+00 2.1711E+00 2.6105E-01 8.7506E+01 4.7024E+04 7.0000E+01 4.7500E+04 2.1028E+00
 SWT_Normal           7.3473E-05 2.6449E+00 9.9633E+00 2.1711E+00 2.6105E-01 8.7506E+01 4.7024E+04 7.0000E+01 4.7500E+04 2.1028E+00
 
 TOTAL MASS IN SYSTEM 3.0520E+04
 CHANGES BY PROCESSES 0.0000E+00
 CHANGES BY LOADS     0.0000E+00
 BOUNDARY INFLOWS     0.0000E+00
 BOUNDARY OUTFLOWS    0.0000E+00
                      CSUBT      
                                 
 CONCENTRATION                           
 obs_1                2.1800E+00
 SWT_Normal           2.1800E+00
 
1
                                             Water quality calculation Sobek-WQ      
                                                                                     
                                                                              mass/m2
                                             T0: 1996.01.01 00:00:00  (scu=       1s)
  19.12% Completed


 DUMP OF INTERMEDIATE RESULTS IN SELECTED SEGMENTS
  TIME =  70D  0H  0M  0S .
 
 TOTAL MASS IN SYSTEM 1.4644E+00 5.2868E+04 1.9931E+05 4.4579E+04 6.3391E+03 1.2334E+06 6.5764E+08 9.8000E+05 6.6500E+08 2.9322E+04
 CHANGES BY PROCESSES-5.0575E-03-3.0062E+01 4.9156E+01 1.1579E+03 1.1181E+03 8.2998E+03-6.9075E+05 0.0000E+00 0.0000E+00-1.1682E+02
 CHANGES BY LOADS     0.0000E+00 0.0000E+00 0.0000E+00 0.0000E+00 0.0000E+00 0.0000E+00 0.0000E+00 0.0000E+00 0.0000E+00 0.0000E+00
 BOUNDARY INFLOWS     0.0000E+00 0.0000E+00 0.0000E+00 0.0000E+00 0.0000E+00 0.0000E+00 0.0000E+00 0.0000E+00 0.0000E+00 0.0000E+00
 BOUNDARY OUTFLOWS    0.0000E+00 0.0000E+00 0.0000E+00 0.0000E+00 0.0000E+00 0.0000E+00 0.0000E+00 0.0000E+00 0.0000E+00 0.0000E+00
                      CWTOT      POCW       SSW        DOCW       AOCW       DOCB       POCB       DOCSUB     POCSUB     CBTOT      
                                                                                                                                    
 CONCENTRATION                           
 obs_1                7.3220E-05 2.6434E+00 9.9657E+00 2.2290E+00 3.1695E-01 8.8098E+01 4.6975E+04 7.0000E+01 4.7500E+04 2.0944E+00
 SWT_Normal           7.3220E-05 2.6434E+00 9.9657E+00 2.2290E+00 3.1695E-01 8.8098E+01 4.6975E+04 7.0000E+01 4.7500E+04 2.0944E+00
 
 TOTAL MASS IN SYSTEM 3.0520E+04
 CHANGES BY PROCESSES 0.0000E+00
 CHANGES BY LOADS     0.0000E+00
 BOUNDARY INFLOWS     0.0000E+00
 BOUNDARY OUTFLOWS    0.0000E+00
                      CSUBT      
                                 
 CONCENTRATION                           
 obs_1                2.1800E+00
 SWT_Normal           2.1800E+00
 
  21.04% Completed


 DUMP OF INTERMEDIATE RESULTS IN SELECTED SEGMENTS
  TIME =  77D  0H  0M  0S .
 
 TOTAL MASS IN SYSTEM 1.4593E+00 5.2855E+04 1.9937E+05 4.5678E+04 7.5767E+03 1.2400E+06 6.5698E+08 9.8000E+05 6.6500E+08 2.9206E+04
 CHANGES BY PROCESSES-5.0691E-03-1.3127E+01 5.6766E+01 1.0990E+03 1.2376E+03 6.6287E+03-6.6338E+05 0.0000E+00 0.0000E+00-1.1604E+02
 CHANGES BY LOADS     0.0000E+00 0.0000E+00 0.0000E+00 0.0000E+00 0.0000E+00 0.0000E+00 0.0000E+00 0.0000E+00 0.0000E+00 0.0000E+00
 BOUNDARY INFLOWS     0.0000E+00 0.0000E+00 0.0000E+00 0.0000E+00 0.0000E+00 0.0000E+00 0.0000E+00 0.0000E+00 0.0000E+00 0.0000E+00
 BOUNDARY OUTFLOWS    0.0000E+00 0.0000E+00 0.0000E+00 0.0000E+00 0.0000E+00 0.0000E+00 0.0000E+00 0.0000E+00 0.0000E+00 0.0000E+00
                      CWTOT      POCW       SSW        DOCW       AOCW       DOCB       POCB       DOCSUB     POCSUB     CBTOT      
                                                                                                                                    
 CONCENTRATION                           
 obs_1                7.2967E-05 2.6428E+00 9.9686E+00 2.2839E+00 3.7884E-01 8.8572E+01 4.6927E+04 7.0000E+01 4.7500E+04 2.0861E+00
 SWT_Normal           7.2967E-05 2.6428E+00 9.9686E+00 2.2839E+00 3.7884E-01 8.8572E+01 4.6927E+04 7.0000E+01 4.7500E+04 2.0861E+00
 
 TOTAL MASS IN SYSTEM 3.0520E+04
 CHANGES BY PROCESSES 0.0000E+00
 CHANGES BY LOADS     0.0000E+00
 BOUNDARY INFLOWS     0.0000E+00
 BOUNDARY OUTFLOWS    0.0000E+00
                      CSUBT      
                                 
 CONCENTRATION                           
 obs_1                2.1800E+00
 SWT_Normal           2.1800E+00
 
1
                                             Water quality calculation Sobek-WQ      
                                                                                     
                                                                              mass/m2
                                             T0: 1996.01.01 00:00:00  (scu=       1s)
  22.95% Completed


 DUMP OF INTERMEDIATE RESULTS IN SELECTED SEGMENTS
  TIME =  84D  0H  0M  0S .
 
 TOTAL MASS IN SYSTEM 1.4542E+00 5.2846E+04 1.9943E+05 4.6731E+04 8.8216E+03 1.2453E+06 6.5635E+08 9.8000E+05 6.6500E+08 2.9090E+04
 CHANGES BY PROCESSES-5.1046E-03-8.9199E+00 5.7172E+01 1.0528E+03 1.2449E+03 5.2654E+03-6.3514E+05 0.0000E+00 0.0000E+00-1.1527E+02
 CHANGES BY LOADS     0.0000E+00 0.0000E+00 0.0000E+00 0.0000E+00 0.0000E+00 0.0000E+00 0.0000E+00 0.0000E+00 0.0000E+00 0.0000E+00
 BOUNDARY INFLOWS     0.0000E+00 0.0000E+00 0.0000E+00 0.0000E+00 0.0000E+00 0.0000E+00 0.0000E+00 0.0000E+00 0.0000E+00 0.0000E+00
 BOUNDARY OUTFLOWS    0.0000E+00 0.0000E+00 0.0000E+00 0.0000E+00 0.0000E+00 0.0000E+00 0.0000E+00 0.0000E+00 0.0000E+00 0.0000E+00
                      CWTOT      POCW       SSW        DOCW       AOCW       DOCB       POCB       DOCSUB     POCSUB     CBTOT      
                                                                                                                                    
 CONCENTRATION                           
 obs_1                7.2712E-05 2.6423E+00 9.9714E+00 2.3365E+00 4.4108E-01 8.8948E+01 4.6882E+04 7.0000E+01 4.7500E+04 2.0779E+00
 SWT_Normal           7.2712E-05 2.6423E+00 9.9714E+00 2.3365E+00 4.4108E-01 8.8948E+01 4.6882E+04 7.0000E+01 4.7500E+04 2.0779E+00
 
 TOTAL MASS IN SYSTEM 3.0520E+04
 CHANGES BY PROCESSES 0.0000E+00
 CHANGES BY LOADS     0.0000E+00
 BOUNDARY INFLOWS     0.0000E+00
 BOUNDARY OUTFLOWS    0.0000E+00
                      CSUBT      
                                 
 CONCENTRATION                           
 obs_1                2.1800E+00
 SWT_Normal           2.1800E+00
 
  24.86% Completed


 DUMP OF INTERMEDIATE RESULTS IN SELECTED SEGMENTS
  TIME =  91D  0H  0M  0S .
 
 TOTAL MASS IN SYSTEM 1.4491E+00 5.2840E+04 1.9949E+05 4.7742E+04 1.0067E+04 1.2494E+06 6.5574E+08 9.8000E+05 6.6500E+08 2.8976E+04
 CHANGES BY PROCESSES-5.1276E-03-5.6895E+00 5.7125E+01 1.0108E+03 1.2453E+03 4.1551E+03-6.0699E+05 0.0000E+00 0.0000E+00-1.1451E+02
 CHANGES BY LOADS     0.0000E+00 0.0000E+00 0.0000E+00 0.0000E+00 0.0000E+00 0.0000E+00 0.0000E+00 0.0000E+00 0.0000E+00 0.0000E+00
 BOUNDARY INFLOWS     0.0000E+00 0.0000E+00 0.0000E+00 0.0000E+00 0.0000E+00 0.0000E+00 0.0000E+00 0.0000E+00 0.0000E+00 0.0000E+00
 BOUNDARY OUTFLOWS    0.0000E+00 0.0000E+00 0.0000E+00 0.0000E+00 0.0000E+00 0.0000E+00 0.0000E+00 0.0000E+00 0.0000E+00 0.0000E+00
                      CWTOT      POCW       SSW        DOCW       AOCW       DOCB       POCB       DOCSUB     POCSUB     CBTOT      
                                                                                                                                    
 CONCENTRATION                           
 obs_1                7.2455E-05 2.6420E+00 9.9743E+00 2.3871E+00 5.0335E-01 8.9245E+01 4.6838E+04 7.0000E+01 4.7500E+04 2.0697E+00
 SWT_Normal           7.2455E-05 2.6420E+00 9.9743E+00 2.3871E+00 5.0335E-01 8.9245E+01 4.6838E+04 7.0000E+01 4.7500E+04 2.0697E+00
 
 TOTAL MASS IN SYSTEM 3.0520E+04
 CHANGES BY PROCESSES 0.0000E+00
 CHANGES BY LOADS     0.0000E+00
 BOUNDARY INFLOWS     0.0000E+00
 BOUNDARY OUTFLOWS    0.0000E+00
                      CSUBT      
                                 
 CONCENTRATION                           
 obs_1                2.1800E+00
 SWT_Normal           2.1800E+00
 
1
                                             Water quality calculation Sobek-WQ      
                                                                                     
                                                                              mass/m2
                                             T0: 1996.01.01 00:00:00  (scu=       1s)
  26.77% Completed


 DUMP OF INTERMEDIATE RESULTS IN SELECTED SEGMENTS
  TIME =  98D  0H  0M  0S .
 
 TOTAL MASS IN SYSTEM 1.4442E+00 5.2878E+04 1.9959E+05 4.8779E+04 1.2629E+04 1.2527E+06 6.5517E+08 9.8000E+05 6.6500E+08 2.8862E+04
 CHANGES BY PROCESSES-4.8779E-03 3.7115E+01 1.0425E+02 1.0373E+03 2.5621E+03 3.2528E+03-5.7149E+05 0.0000E+00 0.0000E+00-1.1376E+02
 CHANGES BY LOADS     0.0000E+00 0.0000E+00 0.0000E+00 0.0000E+00 0.0000E+00 0.0000E+00 0.0000E+00 0.0000E+00 0.0000E+00 0.0000E+00
 BOUNDARY INFLOWS     0.0000E+00 0.0000E+00 0.0000E+00 0.0000E+00 0.0000E+00 0.0000E+00 0.0000E+00 0.0000E+00 0.0000E+00 0.0000E+00
 BOUNDARY OUTFLOWS    0.0000E+00 0.0000E+00 0.0000E+00 0.0000E+00 0.0000E+00 0.0000E+00 0.0000E+00 0.0000E+00 0.0000E+00 0.0000E+00
                      CWTOT      POCW       SSW        DOCW       AOCW       DOCB       POCB       DOCSUB     POCSUB     CBTOT      
                                                                                                                                    
 CONCENTRATION                           
 obs_1                7.2211E-05 2.6439E+00 9.9795E+00 2.4390E+00 6.3145E-01 8.9477E+01 4.6798E+04 7.0000E+01 4.7500E+04 2.0616E+00
 SWT_Normal           7.2211E-05 2.6439E+00 9.9795E+00 2.4390E+00 6.3145E-01 8.9477E+01 4.6798E+04 7.0000E+01 4.7500E+04 2.0616E+00
 
 TOTAL MASS IN SYSTEM 3.0520E+04
 CHANGES BY PROCESSES 0.0000E+00
 CHANGES BY LOADS     0.0000E+00
 BOUNDARY INFLOWS     0.0000E+00
 BOUNDARY OUTFLOWS    0.0000E+00
                      CSUBT      
                                 
 CONCENTRATION                           
 obs_1                2.1800E+00
 SWT_Normal           2.1800E+00
 
  28.69% Completed


 DUMP OF INTERMEDIATE RESULTS IN SELECTED SEGMENTS
  TIME = 105D  0H  0M  0S .
 
 TOTAL MASS IN SYSTEM 1.4397E+00 5.2985E+04 1.9974E+05 5.0062E+04 1.6039E+04 1.2552E+06 6.5466E+08 9.8000E+05 6.6500E+08 2.8749E+04
 CHANGES BY PROCESSES-4.4981E-03 1.0757E+02 1.5314E+02 1.2832E+03 3.4100E+03 2.5306E+03-5.0692E+05 0.0000E+00 0.0000E+00-1.1308E+02
 CHANGES BY LOADS     0.0000E+00 0.0000E+00 0.0000E+00 0.0000E+00 0.0000E+00 0.0000E+00 0.0000E+00 0.0000E+00 0.0000E+00 0.0000E+00
 BOUNDARY INFLOWS     0.0000E+00 0.0000E+00 0.0000E+00 0.0000E+00 0.0000E+00 0.0000E+00 0.0000E+00 0.0000E+00 0.0000E+00 0.0000E+00
 BOUNDARY OUTFLOWS    0.0000E+00 0.0000E+00 0.0000E+00 0.0000E+00 0.0000E+00 0.0000E+00 0.0000E+00 0.0000E+00 0.0000E+00 0.0000E+00
                      CWTOT      POCW       SSW        DOCW       AOCW       DOCB       POCB       DOCSUB     POCSUB     CBTOT      
                                                                                                                                    
 CONCENTRATION                           
 obs_1                7.1986E-05 2.6493E+00 9.9871E+00 2.5031E+00 8.0195E-01 8.9658E+01 4.6761E+04 7.0000E+01 4.7500E+04 2.0535E+00
 SWT_Normal           7.1986E-05 2.6493E+00 9.9871E+00 2.5031E+00 8.0195E-01 8.9658E+01 4.6761E+04 7.0000E+01 4.7500E+04 2.0535E+00
 
 TOTAL MASS IN SYSTEM 3.0520E+04
 CHANGES BY PROCESSES 0.0000E+00
 CHANGES BY LOADS     0.0000E+00
 BOUNDARY INFLOWS     0.0000E+00
 BOUNDARY OUTFLOWS    0.0000E+00
                      CSUBT      
                                 
 CONCENTRATION                           
 obs_1                2.1800E+00
 SWT_Normal           2.1800E+00
 
1
                                             Water quality calculation Sobek-WQ      
                                                                                     
                                                                              mass/m2
                                             T0: 1996.01.01 00:00:00  (scu=       1s)
  30.60% Completed


 DUMP OF INTERMEDIATE RESULTS IN SELECTED SEGMENTS
  TIME = 112D  0H  0M  0S .
 
 TOTAL MASS IN SYSTEM 1.4354E+00 5.3108E+04 1.9990E+05 5.1578E+04 1.9500E+04 1.2572E+06 6.5422E+08 9.8000E+05 6.6500E+08 2.8637E+04
 CHANGES BY PROCESSES-4.3672E-03 1.2246E+02 1.5614E+02 1.5158E+03 3.4613E+03 1.9687E+03-4.3563E+05 0.0000E+00 0.0000E+00-1.1243E+02
 CHANGES BY LOADS     0.0000E+00 0.0000E+00 0.0000E+00 0.0000E+00 0.0000E+00 0.0000E+00 0.0000E+00 0.0000E+00 0.0000E+00 0.0000E+00
 BOUNDARY INFLOWS     0.0000E+00 0.0000E+00 0.0000E+00 0.0000E+00 0.0000E+00 0.0000E+00 0.0000E+00 0.0000E+00 0.0000E+00 0.0000E+00
 BOUNDARY OUTFLOWS    0.0000E+00 0.0000E+00 0.0000E+00 0.0000E+00 0.0000E+00 0.0000E+00 0.0000E+00 0.0000E+00 0.0000E+00 0.0000E+00
                      CWTOT      POCW       SSW        DOCW       AOCW       DOCB       POCB       DOCSUB     POCSUB     CBTOT      
                                                                                                                                    
 CONCENTRATION                           
 obs_1                7.1768E-05 2.6554E+00 9.9949E+00 2.5789E+00 9.7502E-01 8.9799E+01 4.6730E+04 7.0000E+01 4.7500E+04 2.0455E+00
 SWT_Normal           7.1768E-05 2.6554E+00 9.9949E+00 2.5789E+00 9.7502E-01 8.9799E+01 4.6730E+04 7.0000E+01 4.7500E+04 2.0455E+00
 
 TOTAL MASS IN SYSTEM 3.0520E+04
 CHANGES BY PROCESSES 0.0000E+00
 CHANGES BY LOADS     0.0000E+00
 BOUNDARY INFLOWS     0.0000E+00
 BOUNDARY OUTFLOWS    0.0000E+00
                      CSUBT      
                                 
 CONCENTRATION                           
 obs_1                2.1800E+00
 SWT_Normal           2.1800E+00
 
  32.51% Completed


 DUMP OF INTERMEDIATE RESULTS IN SELECTED SEGMENTS
  TIME = 119D  0H  0M  0S .
 
 TOTAL MASS IN SYSTEM 1.4311E+00 5.3238E+04 2.0006E+05 5.3268E+04 2.2965E+04 1.2587E+06 6.5386E+08 9.8000E+05 6.6500E+08 2.8525E+04
 CHANGES BY PROCESSES-4.2702E-03 1.3081E+02 1.5627E+02 1.6903E+03 3.4644E+03 1.5385E+03-3.6427E+05 0.0000E+00 0.0000E+00-1.1180E+02
 CHANGES BY LOADS     0.0000E+00 0.0000E+00 0.0000E+00 0.0000E+00 0.0000E+00 0.0000E+00 0.0000E+00 0.0000E+00 0.0000E+00 0.0000E+00
 BOUNDARY INFLOWS     0.0000E+00 0.0000E+00 0.0000E+00 0.0000E+00 0.0000E+00 0.0000E+00 0.0000E+00 0.0000E+00 0.0000E+00 0.0000E+00
 BOUNDARY OUTFLOWS    0.0000E+00 0.0000E+00 0.0000E+00 0.0000E+00 0.0000E+00 0.0000E+00 0.0000E+00 0.0000E+00 0.0000E+00 0.0000E+00
                      CWTOT      POCW       SSW        DOCW       AOCW       DOCB       POCB       DOCSUB     POCSUB     CBTOT      
                                                                                                                                    
 CONCENTRATION                           
 obs_1                7.1555E-05 2.6619E+00 1.0003E+01 2.6634E+00 1.1482E+00 8.9908E+01 4.6704E+04 7.0000E+01 4.7500E+04 2.0375E+00
 SWT_Normal           7.1555E-05 2.6619E+00 1.0003E+01 2.6634E+00 1.1482E+00 8.9908E+01 4.6704E+04 7.0000E+01 4.7500E+04 2.0375E+00
 
 TOTAL MASS IN SYSTEM 3.0520E+04
 CHANGES BY PROCESSES 0.0000E+00
 CHANGES BY LOADS     0.0000E+00
 BOUNDARY INFLOWS     0.0000E+00
 BOUNDARY OUTFLOWS    0.0000E+00
                      CSUBT      
                                 
 CONCENTRATION                           
 obs_1                2.1800E+00
 SWT_Normal           2.1800E+00
 
1
                                             Water quality calculation Sobek-WQ      
                                                                                     
                                                                              mass/m2
                                             T0: 1996.01.01 00:00:00  (scu=       1s)
  34.42% Completed


 DUMP OF INTERMEDIATE RESULTS IN SELECTED SEGMENTS
  TIME = 126D  0H  0M  0S .
 
 TOTAL MASS IN SYSTEM 1.4268E+00 5.3365E+04 2.0020E+05 5.5072E+04 2.5903E+04 1.2599E+06 6.5356E+08 9.8000E+05 6.6500E+08 2.8414E+04
 CHANGES BY PROCESSES-4.2703E-03 1.2701E+02 1.3986E+02 1.8039E+03 2.9383E+03 1.2142E+03-2.9498E+05 0.0000E+00 0.0000E+00-1.1118E+02
 CHANGES BY LOADS     0.0000E+00 0.0000E+00 0.0000E+00 0.0000E+00 0.0000E+00 0.0000E+00 0.0000E+00 0.0000E+00 0.0000E+00 0.0000E+00
 BOUNDARY INFLOWS     0.0000E+00 0.0000E+00 0.0000E+00 0.0000E+00 0.0000E+00 0.0000E+00 0.0000E+00 0.0000E+00 0.0000E+00 0.0000E+00
 BOUNDARY OUTFLOWS    0.0000E+00 0.0000E+00 0.0000E+00 0.0000E+00 0.0000E+00 0.0000E+00 0.0000E+00 0.0000E+00 0.0000E+00 0.0000E+00
                      CWTOT      POCW       SSW        DOCW       AOCW       DOCB       POCB       DOCSUB     POCSUB     CBTOT      
                                                                                                                                    
 CONCENTRATION                           
 obs_1                7.1341E-05 2.6683E+00 1.0010E+01 2.7536E+00 1.2952E+00 8.9995E+01 4.6683E+04 7.0000E+01 4.7500E+04 2.0295E+00
 SWT_Normal           7.1341E-05 2.6683E+00 1.0010E+01 2.7536E+00 1.2952E+00 8.9995E+01 4.6683E+04 7.0000E+01 4.7500E+04 2.0295E+00
 
 TOTAL MASS IN SYSTEM 3.0520E+04
 CHANGES BY PROCESSES 0.0000E+00
 CHANGES BY LOADS     0.0000E+00
 BOUNDARY INFLOWS     0.0000E+00
 BOUNDARY OUTFLOWS    0.0000E+00
                      CSUBT      
                                 
 CONCENTRATION                           
 obs_1                2.1800E+00
 SWT_Normal           2.1800E+00
 
  36.33% Completed


 DUMP OF INTERMEDIATE RESULTS IN SELECTED SEGMENTS
  TIME = 133D  0H  0M  0S .
 
 TOTAL MASS IN SYSTEM 1.4223E+00 5.3444E+04 2.0029E+05 5.6806E+04 2.7904E+04 1.2609E+06 6.5332E+08 9.8000E+05 6.6500E+08 2.8303E+04
 CHANGES BY PROCESSES-4.5142E-03 7.8576E+01 9.1891E+01 1.7339E+03 2.0010E+03 9.7108E+02-2.4506E+05 0.0000E+00 0.0000E+00-1.1052E+02
 CHANGES BY LOADS     0.0000E+00 0.0000E+00 0.0000E+00 0.0000E+00 0.0000E+00 0.0000E+00 0.0000E+00 0.0000E+00 0.0000E+00 0.0000E+00
 BOUNDARY INFLOWS     0.0000E+00 0.0000E+00 0.0000E+00 0.0000E+00 0.0000E+00 0.0000E+00 0.0000E+00 0.0000E+00 0.0000E+00 0.0000E+00
 BOUNDARY OUTFLOWS    0.0000E+00 0.0000E+00 0.0000E+00 0.0000E+00 0.0000E+00 0.0000E+00 0.0000E+00 0.0000E+00 0.0000E+00 0.0000E+00
                      CWTOT      POCW       SSW        DOCW       AOCW       DOCB       POCB       DOCSUB     POCSUB     CBTOT      
                                                                                                                                    
 CONCENTRATION                           
 obs_1                7.1115E-05 2.6722E+00 1.0014E+01 2.8403E+00 1.3952E+00 9.0064E+01 4.6666E+04 7.0000E+01 4.7500E+04 2.0216E+00
 SWT_Normal           7.1115E-05 2.6722E+00 1.0014E+01 2.8403E+00 1.3952E+00 9.0064E+01 4.6666E+04 7.0000E+01 4.7500E+04 2.0216E+00
 
 TOTAL MASS IN SYSTEM 3.0520E+04
 CHANGES BY PROCESSES 0.0000E+00
 CHANGES BY LOADS     0.0000E+00
 BOUNDARY INFLOWS     0.0000E+00
 BOUNDARY OUTFLOWS    0.0000E+00
                      CSUBT      
                                 
 CONCENTRATION                           
 obs_1                2.1800E+00
 SWT_Normal           2.1800E+00
 
1
                                             Water quality calculation Sobek-WQ      
                                                                                     
                                                                              mass/m2
                                             T0: 1996.01.01 00:00:00  (scu=       1s)
  38.25% Completed


 DUMP OF INTERMEDIATE RESULTS IN SELECTED SEGMENTS
  TIME = 140D  0H  0M  0S .
 
 TOTAL MASS IN SYSTEM 1.4178E+00 5.3517E+04 2.0037E+05 5.8416E+04 2.9825E+04 1.2617E+06 6.5312E+08 9.8000E+05 6.6500E+08 2.8193E+04
 CHANGES BY PROCESSES-4.5536E-03 7.2742E+01 8.6766E+01 1.6096E+03 1.9211E+03 7.8310E+02-2.0483E+05 0.0000E+00 0.0000E+00-1.0984E+02
 CHANGES BY LOADS     0.0000E+00 0.0000E+00 0.0000E+00 0.0000E+00 0.0000E+00 0.0000E+00 0.0000E+00 0.0000E+00 0.0000E+00 0.0000E+00
 BOUNDARY INFLOWS     0.0000E+00 0.0000E+00 0.0000E+00 0.0000E+00 0.0000E+00 0.0000E+00 0.0000E+00 0.0000E+00 0.0000E+00 0.0000E+00
 BOUNDARY OUTFLOWS    0.0000E+00 0.0000E+00 0.0000E+00 0.0000E+00 0.0000E+00 0.0000E+00 0.0000E+00 0.0000E+00 0.0000E+00 0.0000E+00
                      CWTOT      POCW       SSW        DOCW       AOCW       DOCB       POCB       DOCSUB     POCSUB     CBTOT      
                                                                                                                                    
 CONCENTRATION                           
 obs_1                7.0888E-05 2.6758E+00 1.0019E+01 2.9208E+00 1.4913E+00 9.0120E+01 4.6651E+04 7.0000E+01 4.7500E+04 2.0138E+00
 SWT_Normal           7.0888E-05 2.6758E+00 1.0019E+01 2.9208E+00 1.4913E+00 9.0120E+01 4.6651E+04 7.0000E+01 4.7500E+04 2.0138E+00
 
 TOTAL MASS IN SYSTEM 3.0520E+04
 CHANGES BY PROCESSES 0.0000E+00
 CHANGES BY LOADS     0.0000E+00
 BOUNDARY INFLOWS     0.0000E+00
 BOUNDARY OUTFLOWS    0.0000E+00
                      CSUBT      
                                 
 CONCENTRATION                           
 obs_1                2.1800E+00
 SWT_Normal           2.1800E+00
 
  40.16% Completed


 DUMP OF INTERMEDIATE RESULTS IN SELECTED SEGMENTS
  TIME = 147D  0H  0M  0S .
 
 TOTAL MASS IN SYSTEM 1.4132E+00 5.3593E+04 2.0046E+05 5.9927E+04 3.1741E+04 1.2623E+06 6.5295E+08 9.8000E+05 6.6500E+08 2.8084E+04
 CHANGES BY PROCESSES-4.5544E-03 7.6406E+01 8.6359E+01 1.5109E+03 1.9162E+03 6.3750E+02-1.6549E+05 0.0000E+00 0.0000E+00-1.0916E+02
 CHANGES BY LOADS     0.0000E+00 0.0000E+00 0.0000E+00 0.0000E+00 0.0000E+00 0.0000E+00 0.0000E+00 0.0000E+00 0.0000E+00 0.0000E+00
 BOUNDARY INFLOWS     0.0000E+00 0.0000E+00 0.0000E+00 0.0000E+00 0.0000E+00 0.0000E+00 0.0000E+00 0.0000E+00 0.0000E+00 0.0000E+00
 BOUNDARY OUTFLOWS    0.0000E+00 0.0000E+00 0.0000E+00 0.0000E+00 0.0000E+00 0.0000E+00 0.0000E+00 0.0000E+00 0.0000E+00 0.0000E+00
                      CWTOT      POCW       SSW        DOCW       AOCW       DOCB       POCB       DOCSUB     POCSUB     CBTOT      
                                                                                                                                    
 CONCENTRATION                           
 obs_1                7.0660E-05 2.6797E+00 1.0023E+01 2.9963E+00 1.5871E+00 9.0166E+01 4.6639E+04 7.0000E+01 4.7500E+04 2.0060E+00
 SWT_Normal           7.0660E-05 2.6797E+00 1.0023E+01 2.9963E+00 1.5871E+00 9.0166E+01 4.6639E+04 7.0000E+01 4.7500E+04 2.0060E+00
 
 TOTAL MASS IN SYSTEM 3.0520E+04
 CHANGES BY PROCESSES 0.0000E+00
 CHANGES BY LOADS     0.0000E+00
 BOUNDARY INFLOWS     0.0000E+00
 BOUNDARY OUTFLOWS    0.0000E+00
                      CSUBT      
                                 
 CONCENTRATION                           
 obs_1                2.1800E+00
 SWT_Normal           2.1800E+00
 
1
                                             Water quality calculation Sobek-WQ      
                                                                                     
                                                                              mass/m2
                                             T0: 1996.01.01 00:00:00  (scu=       1s)
  42.07% Completed


 DUMP OF INTERMEDIATE RESULTS IN SELECTED SEGMENTS
  TIME = 154D  0H  0M  0S .
 
 TOTAL MASS IN SYSTEM 1.4087E+00 5.3674E+04 2.0055E+05 6.1363E+04 3.3660E+04 1.2629E+06 6.5282E+08 9.8000E+05 6.6500E+08 2.7976E+04
 CHANGES BY PROCESSES-4.5432E-03 8.0664E+01 8.6281E+01 1.4361E+03 1.9190E+03 5.2727E+02-1.2640E+05 0.0000E+00 0.0000E+00-1.0848E+02
 CHANGES BY LOADS     0.0000E+00 0.0000E+00 0.0000E+00 0.0000E+00 0.0000E+00 0.0000E+00 0.0000E+00 0.0000E+00 0.0000E+00 0.0000E+00
 BOUNDARY INFLOWS     0.0000E+00 0.0000E+00 0.0000E+00 0.0000E+00 0.0000E+00 0.0000E+00 0.0000E+00 0.0000E+00 0.0000E+00 0.0000E+00
 BOUNDARY OUTFLOWS    0.0000E+00 0.0000E+00 0.0000E+00 0.0000E+00 0.0000E+00 0.0000E+00 0.0000E+00 0.0000E+00 0.0000E+00 0.0000E+00
                      CWTOT      POCW       SSW        DOCW       AOCW       DOCB       POCB       DOCSUB     POCSUB     CBTOT      
                                                                                                                                    
 CONCENTRATION                           
 obs_1                7.0433E-05 2.6837E+00 1.0027E+01 3.0681E+00 1.6830E+00 9.0204E+01 4.6630E+04 7.0000E+01 4.7500E+04 1.9983E+00
 SWT_Normal           7.0433E-05 2.6837E+00 1.0027E+01 3.0681E+00 1.6830E+00 9.0204E+01 4.6630E+04 7.0000E+01 4.7500E+04 1.9983E+00
 
 TOTAL MASS IN SYSTEM 3.0520E+04
 CHANGES BY PROCESSES 0.0000E+00
 CHANGES BY LOADS     0.0000E+00
 BOUNDARY INFLOWS     0.0000E+00
 BOUNDARY OUTFLOWS    0.0000E+00
                      CSUBT      
                                 
 CONCENTRATION                           
 obs_1                2.1800E+00
 SWT_Normal           2.1800E+00
 
  43.98% Completed


 DUMP OF INTERMEDIATE RESULTS IN SELECTED SEGMENTS
  TIME = 161D  0H  0M  0S .
 
 TOTAL MASS IN SYSTEM 1.4041E+00 5.3761E+04 2.0063E+05 6.2746E+04 3.5629E+04 1.2633E+06 6.5274E+08 9.8000E+05 6.6500E+08 2.7868E+04
 CHANGES BY PROCESSES-4.5122E-03 8.6893E+01 8.8297E+01 1.3836E+03 1.9681E+03 4.4682E+02-8.7054E+04 0.0000E+00 0.0000E+00-1.0781E+02
 CHANGES BY LOADS     0.0000E+00 0.0000E+00 0.0000E+00 0.0000E+00 0.0000E+00 0.0000E+00 0.0000E+00 0.0000E+00 0.0000E+00 0.0000E+00
 BOUNDARY INFLOWS     0.0000E+00 0.0000E+00 0.0000E+00 0.0000E+00 0.0000E+00 0.0000E+00 0.0000E+00 0.0000E+00 0.0000E+00 0.0000E+00
 BOUNDARY OUTFLOWS    0.0000E+00 0.0000E+00 0.0000E+00 0.0000E+00 0.0000E+00 0.0000E+00 0.0000E+00 0.0000E+00 0.0000E+00 0.0000E+00
                      CWTOT      POCW       SSW        DOCW       AOCW       DOCB       POCB       DOCSUB     POCSUB     CBTOT      
                                                                                                                                    
 CONCENTRATION                           
 obs_1                7.0207E-05 2.6880E+00 1.0032E+01 3.1373E+00 1.7814E+00 9.0236E+01 4.6624E+04 7.0000E+01 4.7500E+04 1.9906E+00
 SWT_Normal           7.0207E-05 2.6880E+00 1.0032E+01 3.1373E+00 1.7814E+00 9.0236E+01 4.6624E+04 7.0000E+01 4.7500E+04 1.9906E+00
 
 TOTAL MASS IN SYSTEM 3.0520E+04
 CHANGES BY PROCESSES 0.0000E+00
 CHANGES BY LOADS     0.0000E+00
 BOUNDARY INFLOWS     0.0000E+00
 BOUNDARY OUTFLOWS    0.0000E+00
                      CSUBT      
                                 
 CONCENTRATION                           
 obs_1                2.1800E+00
 SWT_Normal           2.1800E+00
 
1
                                             Water quality calculation Sobek-WQ      
                                                                                     
                                                                              mass/m2
                                             T0: 1996.01.01 00:00:00  (scu=       1s)
  45.90% Completed


 DUMP OF INTERMEDIATE RESULTS IN SELECTED SEGMENTS
  TIME = 168D  0H  0M  0S .
 
 TOTAL MASS IN SYSTEM 1.3997E+00 5.3853E+04 2.0072E+05 6.4096E+04 3.7608E+04 1.2637E+06 6.5269E+08 9.8000E+05 6.6500E+08 2.7761E+04
 CHANGES BY PROCESSES-4.4798E-03 9.2438E+01 8.8938E+01 1.3498E+03 1.9791E+03 3.9178E+02-4.7197E+04 0.0000E+00 0.0000E+00-1.0715E+02
 CHANGES BY LOADS     0.0000E+00 0.0000E+00 0.0000E+00 0.0000E+00 0.0000E+00 0.0000E+00 0.0000E+00 0.0000E+00 0.0000E+00 0.0000E+00
 BOUNDARY INFLOWS     0.0000E+00 0.0000E+00 0.0000E+00 0.0000E+00 0.0000E+00 0.0000E+00 0.0000E+00 0.0000E+00 0.0000E+00 0.0000E+00
 BOUNDARY OUTFLOWS    0.0000E+00 0.0000E+00 0.0000E+00 0.0000E+00 0.0000E+00 0.0000E+00 0.0000E+00 0.0000E+00 0.0000E+00 0.0000E+00
                      CWTOT      POCW       SSW        DOCW       AOCW       DOCB       POCB       DOCSUB     POCSUB     CBTOT      
                                                                                                                                    
 CONCENTRATION                           
 obs_1                6.9983E-05 2.6927E+00 1.0036E+01 3.2048E+00 1.8804E+00 9.0264E+01 4.6621E+04 7.0000E+01 4.7500E+04 1.9829E+00
 SWT_Normal           6.9983E-05 2.6927E+00 1.0036E+01 3.2048E+00 1.8804E+00 9.0264E+01 4.6621E+04 7.0000E+01 4.7500E+04 1.9829E+00
 
 TOTAL MASS IN SYSTEM 3.0520E+04
 CHANGES BY PROCESSES 0.0000E+00
 CHANGES BY LOADS     0.0000E+00
 BOUNDARY INFLOWS     0.0000E+00
 BOUNDARY OUTFLOWS    0.0000E+00
                      CSUBT      
                                 
 CONCENTRATION                           
 obs_1                2.1800E+00
 SWT_Normal           2.1800E+00
 
  47.81% Completed


 DUMP OF INTERMEDIATE RESULTS IN SELECTED SEGMENTS
  TIME = 175D  0H  0M  0S .
 
 TOTAL MASS IN SYSTEM 1.3952E+00 5.3950E+04 2.0081E+05 6.5421E+04 3.9587E+04 1.2640E+06 6.5268E+08 9.8000E+05 6.6500E+08 2.7654E+04
 CHANGES BY PROCESSES-4.4471E-03 9.6930E+01 8.8891E+01 1.3251E+03 1.9798E+03 3.5814E+02-7.4554E+03 0.0000E+00 0.0000E+00-1.0650E+02
 CHANGES BY LOADS     0.0000E+00 0.0000E+00 0.0000E+00 0.0000E+00 0.0000E+00 0.0000E+00 0.0000E+00 0.0000E+00 0.0000E+00 0.0000E+00
 BOUNDARY INFLOWS     0.0000E+00 0.0000E+00 0.0000E+00 0.0000E+00 0.0000E+00 0.0000E+00 0.0000E+00 0.0000E+00 0.0000E+00 0.0000E+00
 BOUNDARY OUTFLOWS    0.0000E+00 0.0000E+00 0.0000E+00 0.0000E+00 0.0000E+00 0.0000E+00 0.0000E+00 0.0000E+00 0.0000E+00 0.0000E+00
                      CWTOT      POCW       SSW        DOCW       AOCW       DOCB       POCB       DOCSUB     POCSUB     CBTOT      
                                                                                                                                    
 CONCENTRATION                           
 obs_1                6.9761E-05 2.6975E+00 1.0041E+01 3.2711E+00 1.9794E+00 9.0289E+01 4.6620E+04 7.0000E+01 4.7500E+04 1.9753E+00
 SWT_Normal           6.9761E-05 2.6975E+00 1.0041E+01 3.2711E+00 1.9794E+00 9.0289E+01 4.6620E+04 7.0000E+01 4.7500E+04 1.9753E+00
 
 TOTAL MASS IN SYSTEM 3.0520E+04
 CHANGES BY PROCESSES 0.0000E+00
 CHANGES BY LOADS     0.0000E+00
 BOUNDARY INFLOWS     0.0000E+00
 BOUNDARY OUTFLOWS    0.0000E+00
                      CSUBT      
                                 
 CONCENTRATION                           
 obs_1                2.1800E+00
 SWT_Normal           2.1800E+00
 
1
                                             Water quality calculation Sobek-WQ      
                                                                                     
                                                                              mass/m2
                                             T0: 1996.01.01 00:00:00  (scu=       1s)
  49.72% Completed


 DUMP OF INTERMEDIATE RESULTS IN SELECTED SEGMENTS
  TIME = 182D  0H  0M  0S .
 
 TOTAL MASS IN SYSTEM 1.3908E+00 5.4051E+04 2.0090E+05 6.6728E+04 4.1567E+04 1.2644E+06 6.5271E+08 9.8000E+05 6.6500E+08 2.7548E+04
 CHANGES BY PROCESSES-4.4121E-03 1.0128E+02 8.8781E+01 1.3068E+03 1.9798E+03 3.4233E+02 3.2083E+04 0.0000E+00 0.0000E+00-1.0585E+02
 CHANGES BY LOADS     0.0000E+00 0.0000E+00 0.0000E+00 0.0000E+00 0.0000E+00 0.0000E+00 0.0000E+00 0.0000E+00 0.0000E+00 0.0000E+00
 BOUNDARY INFLOWS     0.0000E+00 0.0000E+00 0.0000E+00 0.0000E+00 0.0000E+00 0.0000E+00 0.0000E+00 0.0000E+00 0.0000E+00 0.0000E+00
 BOUNDARY OUTFLOWS    0.0000E+00 0.0000E+00 0.0000E+00 0.0000E+00 0.0000E+00 0.0000E+00 0.0000E+00 0.0000E+00 0.0000E+00 0.0000E+00
                      CWTOT      POCW       SSW        DOCW       AOCW       DOCB       POCB       DOCSUB     POCSUB     CBTOT      
                                                                                                                                    
 CONCENTRATION                           
 obs_1                6.9540E-05 2.7026E+00 1.0045E+01 3.3364E+00 2.0784E+00 9.0314E+01 4.6622E+04 7.0000E+01 4.7500E+04 1.9677E+00
 SWT_Normal           6.9540E-05 2.7026E+00 1.0045E+01 3.3364E+00 2.0784E+00 9.0314E+01 4.6622E+04 7.0000E+01 4.7500E+04 1.9677E+00
 
 TOTAL MASS IN SYSTEM 3.0520E+04
 CHANGES BY PROCESSES 0.0000E+00
 CHANGES BY LOADS     0.0000E+00
 BOUNDARY INFLOWS     0.0000E+00
 BOUNDARY OUTFLOWS    0.0000E+00
                      CSUBT      
                                 
 CONCENTRATION                           
 obs_1                2.1800E+00
 SWT_Normal           2.1800E+00
 
  51.63% Completed


 DUMP OF INTERMEDIATE RESULTS IN SELECTED SEGMENTS
  TIME = 189D  0H  0M  0S .
 
 TOTAL MASS IN SYSTEM 1.3861E+00 5.4104E+04 2.0093E+05 6.7936E+04 4.1804E+04 1.2647E+06 6.5278E+08 9.8000E+05 6.6500E+08 2.7443E+04
 CHANGES BY PROCESSES-4.7006E-03 5.3131E+01 2.6266E+01 1.2083E+03 2.3671E+02 3.4076E+02 6.1487E+04 0.0000E+00 0.0000E+00-1.0520E+02
 CHANGES BY LOADS     0.0000E+00 0.0000E+00 0.0000E+00 0.0000E+00 0.0000E+00 0.0000E+00 0.0000E+00 0.0000E+00 0.0000E+00 0.0000E+00
 BOUNDARY INFLOWS     0.0000E+00 0.0000E+00 0.0000E+00 0.0000E+00 0.0000E+00 0.0000E+00 0.0000E+00 0.0000E+00 0.0000E+00 0.0000E+00
 BOUNDARY OUTFLOWS    0.0000E+00 0.0000E+00 0.0000E+00 0.0000E+00 0.0000E+00 0.0000E+00 0.0000E+00 0.0000E+00 0.0000E+00 0.0000E+00
                      CWTOT      POCW       SSW        DOCW       AOCW       DOCB       POCB       DOCSUB     POCSUB     CBTOT      
                                                                                                                                    
 CONCENTRATION                           
 obs_1                6.9305E-05 2.7052E+00 1.0046E+01 3.3968E+00 2.0902E+00 9.0338E+01 4.6627E+04 7.0000E+01 4.7500E+04 1.9602E+00
 SWT_Normal           6.9305E-05 2.7052E+00 1.0046E+01 3.3968E+00 2.0902E+00 9.0338E+01 4.6627E+04 7.0000E+01 4.7500E+04 1.9602E+00
 
 TOTAL MASS IN SYSTEM 3.0520E+04
 CHANGES BY PROCESSES 0.0000E+00
 CHANGES BY LOADS     0.0000E+00
 BOUNDARY INFLOWS     0.0000E+00
 BOUNDARY OUTFLOWS    0.0000E+00
                      CSUBT      
                                 
 CONCENTRATION                           
 obs_1                2.1800E+00
 SWT_Normal           2.1800E+00
 
1
                                             Water quality calculation Sobek-WQ      
                                                                                     
                                                                              mass/m2
                                             T0: 1996.01.01 00:00:00  (scu=       1s)
  53.55% Completed


 DUMP OF INTERMEDIATE RESULTS IN SELECTED SEGMENTS
  TIME = 196D  0H  0M  0S .
 
 TOTAL MASS IN SYSTEM 1.3810E+00 5.4073E+04 2.0089E+05 6.8765E+04 4.0918E+04 1.2651E+06 6.5283E+08 9.8000E+05 6.6500E+08 2.7339E+04
 CHANGES BY PROCESSES-5.1394E-03-3.1674E+01-3.8531E+01 8.2894E+02-8.8556E+02 3.3820E+02 5.2013E+04 0.0000E+00 0.0000E+00-1.0447E+02
 CHANGES BY LOADS     0.0000E+00 0.0000E+00 0.0000E+00 0.0000E+00 0.0000E+00 0.0000E+00 0.0000E+00 0.0000E+00 0.0000E+00 0.0000E+00
 BOUNDARY INFLOWS     0.0000E+00 0.0000E+00 0.0000E+00 0.0000E+00 0.0000E+00 0.0000E+00 0.0000E+00 0.0000E+00 0.0000E+00 0.0000E+00
 BOUNDARY OUTFLOWS    0.0000E+00 0.0000E+00 0.0000E+00 0.0000E+00 0.0000E+00 0.0000E+00 0.0000E+00 0.0000E+00 0.0000E+00 0.0000E+00
                      CWTOT      POCW       SSW        DOCW       AOCW       DOCB       POCB       DOCSUB     POCSUB     CBTOT      
                                                                                                                                    
 CONCENTRATION                           
 obs_1                6.9048E-05 2.7036E+00 1.0044E+01 3.4383E+00 2.0459E+00 9.0362E+01 4.6631E+04 7.0000E+01 4.7500E+04 1.9528E+00
 SWT_Normal           6.9048E-05 2.7036E+00 1.0044E+01 3.4383E+00 2.0459E+00 9.0362E+01 4.6631E+04 7.0000E+01 4.7500E+04 1.9528E+00
 
 TOTAL MASS IN SYSTEM 3.0520E+04
 CHANGES BY PROCESSES 0.0000E+00
 CHANGES BY LOADS     0.0000E+00
 BOUNDARY INFLOWS     0.0000E+00
 BOUNDARY OUTFLOWS    0.0000E+00
                      CSUBT      
                                 
 CONCENTRATION                           
 obs_1                2.1800E+00
 SWT_Normal           2.1800E+00
 
  55.46% Completed


 DUMP OF INTERMEDIATE RESULTS IN SELECTED SEGMENTS
  TIME = 203D  0H  0M  0S .
 
 TOTAL MASS IN SYSTEM 1.3757E+00 5.4030E+04 2.0085E+05 6.9241E+04 3.9965E+04 1.2654E+06 6.5286E+08 9.8000E+05 6.6500E+08 2.7235E+04
 CHANGES BY PROCESSES-5.2582E-03-4.3008E+01-4.2781E+01 4.7570E+02-9.5358E+02 3.1836E+02 3.3248E+04 0.0000E+00 0.0000E+00-1.0370E+02
 CHANGES BY LOADS     0.0000E+00 0.0000E+00 0.0000E+00 0.0000E+00 0.0000E+00 0.0000E+00 0.0000E+00 0.0000E+00 0.0000E+00 0.0000E+00
 BOUNDARY INFLOWS     0.0000E+00 0.0000E+00 0.0000E+00 0.0000E+00 0.0000E+00 0.0000E+00 0.0000E+00 0.0000E+00 0.0000E+00 0.0000E+00
 BOUNDARY OUTFLOWS    0.0000E+00 0.0000E+00 0.0000E+00 0.0000E+00 0.0000E+00 0.0000E+00 0.0000E+00 0.0000E+00 0.0000E+00 0.0000E+00
                      CWTOT      POCW       SSW        DOCW       AOCW       DOCB       POCB       DOCSUB     POCSUB     CBTOT      
                                                                                                                                    
 CONCENTRATION                           
 obs_1                6.8785E-05 2.7015E+00 1.0042E+01 3.4620E+00 1.9982E+00 9.0385E+01 4.6633E+04 7.0000E+01 4.7500E+04 1.9454E+00
 SWT_Normal           6.8785E-05 2.7015E+00 1.0042E+01 3.4620E+00 1.9982E+00 9.0385E+01 4.6633E+04 7.0000E+01 4.7500E+04 1.9454E+00
 
 TOTAL MASS IN SYSTEM 3.0520E+04
 CHANGES BY PROCESSES 0.0000E+00
 CHANGES BY LOADS     0.0000E+00
 BOUNDARY INFLOWS     0.0000E+00
 BOUNDARY OUTFLOWS    0.0000E+00
                      CSUBT      
                                 
 CONCENTRATION                           
 obs_1                2.1800E+00
 SWT_Normal           2.1800E+00
 
1
                                             Water quality calculation Sobek-WQ      
                                                                                     
                                                                              mass/m2
                                             T0: 1996.01.01 00:00:00  (scu=       1s)
  57.37% Completed


 DUMP OF INTERMEDIATE RESULTS IN SELECTED SEGMENTS
  TIME = 210D  0H  0M  0S .
 
 TOTAL MASS IN SYSTEM 1.3704E+00 5.3984E+04 2.0080E+05 6.9448E+04 3.9007E+04 1.2657E+06 6.5287E+08 9.8000E+05 6.6500E+08 2.7132E+04
 CHANGES BY PROCESSES-5.3238E-03-4.5715E+01-4.3016E+01 2.0683E+02-9.5770E+02 2.8423E+02 1.3998E+04 0.0000E+00 0.0000E+00-1.0293E+02
 CHANGES BY LOADS     0.0000E+00 0.0000E+00 0.0000E+00 0.0000E+00 0.0000E+00 0.0000E+00 0.0000E+00 0.0000E+00 0.0000E+00 0.0000E+00
 BOUNDARY INFLOWS     0.0000E+00 0.0000E+00 0.0000E+00 0.0000E+00 0.0000E+00 0.0000E+00 0.0000E+00 0.0000E+00 0.0000E+00 0.0000E+00
 BOUNDARY OUTFLOWS    0.0000E+00 0.0000E+00 0.0000E+00 0.0000E+00 0.0000E+00 0.0000E+00 0.0000E+00 0.0000E+00 0.0000E+00 0.0000E+00
                      CWTOT      POCW       SSW        DOCW       AOCW       DOCB       POCB       DOCSUB     POCSUB     CBTOT      
                                                                                                                                    
 CONCENTRATION                           
 obs_1                6.8519E-05 2.6992E+00 1.0040E+01 3.4724E+00 1.9504E+00 9.0405E+01 4.6634E+04 7.0000E+01 4.7500E+04 1.9380E+00
 SWT_Normal           6.8519E-05 2.6992E+00 1.0040E+01 3.4724E+00 1.9504E+00 9.0405E+01 4.6634E+04 7.0000E+01 4.7500E+04 1.9380E+00
 
 TOTAL MASS IN SYSTEM 3.0520E+04
 CHANGES BY PROCESSES 0.0000E+00
 CHANGES BY LOADS     0.0000E+00
 BOUNDARY INFLOWS     0.0000E+00
 BOUNDARY OUTFLOWS    0.0000E+00
                      CSUBT      
                                 
 CONCENTRATION                           
 obs_1                2.1800E+00
 SWT_Normal           2.1800E+00
 
  59.28% Completed


 DUMP OF INTERMEDIATE RESULTS IN SELECTED SEGMENTS
  TIME = 217D  0H  0M  0S .
 
 TOTAL MASS IN SYSTEM 1.3650E+00 5.3936E+04 2.0076E+05 6.9453E+04 3.8049E+04 1.2659E+06 6.5287E+08 9.8000E+05 6.6500E+08 2.7030E+04
 CHANGES BY PROCESSES-5.3627E-03-4.7855E+01-4.2984E+01 5.0393E+00-9.5795E+02 2.4113E+02-5.1859E+03 0.0000E+00 0.0000E+00-1.0217E+02
 CHANGES BY LOADS     0.0000E+00 0.0000E+00 0.0000E+00 0.0000E+00 0.0000E+00 0.0000E+00 0.0000E+00 0.0000E+00 0.0000E+00 0.0000E+00
 BOUNDARY INFLOWS     0.0000E+00 0.0000E+00 0.0000E+00 0.0000E+00 0.0000E+00 0.0000E+00 0.0000E+00 0.0000E+00 0.0000E+00 0.0000E+00
 BOUNDARY OUTFLOWS    0.0000E+00 0.0000E+00 0.0000E+00 0.0000E+00 0.0000E+00 0.0000E+00 0.0000E+00 0.0000E+00 0.0000E+00 0.0000E+00
                      CWTOT      POCW       SSW        DOCW       AOCW       DOCB       POCB       DOCSUB     POCSUB     CBTOT      
                                                                                                                                    
 CONCENTRATION                           
 obs_1                6.8251E-05 2.6968E+00 1.0038E+01 3.4726E+00 1.9025E+00 9.0422E+01 4.6634E+04 7.0000E+01 4.7500E+04 1.9307E+00
 SWT_Normal           6.8251E-05 2.6968E+00 1.0038E+01 3.4726E+00 1.9025E+00 9.0422E+01 4.6634E+04 7.0000E+01 4.7500E+04 1.9307E+00
 
 TOTAL MASS IN SYSTEM 3.0520E+04
 CHANGES BY PROCESSES 0.0000E+00
 CHANGES BY LOADS     0.0000E+00
 BOUNDARY INFLOWS     0.0000E+00
 BOUNDARY OUTFLOWS    0.0000E+00
                      CSUBT      
                                 
 CONCENTRATION                           
 obs_1                2.1800E+00
 SWT_Normal           2.1800E+00
 
1
                                             Water quality calculation Sobek-WQ      
                                                                                     
                                                                              mass/m2
                                             T0: 1996.01.01 00:00:00  (scu=       1s)
  61.20% Completed


 DUMP OF INTERMEDIATE RESULTS IN SELECTED SEGMENTS
  TIME = 224D  0H  0M  0S .
 
 TOTAL MASS IN SYSTEM 1.3596E+00 5.3886E+04 2.0072E+05 6.9306E+04 3.7091E+04 1.2661E+06 6.5285E+08 9.8000E+05 6.6500E+08 2.6928E+04
 CHANGES BY PROCESSES-5.3847E-03-4.9973E+01-4.2953E+01-1.4639E+02-9.5797E+02 1.9295E+02-2.4271E+04 0.0000E+00 0.0000E+00-1.0141E+02
 CHANGES BY LOADS     0.0000E+00 0.0000E+00 0.0000E+00 0.0000E+00 0.0000E+00 0.0000E+00 0.0000E+00 0.0000E+00 0.0000E+00 0.0000E+00
 BOUNDARY INFLOWS     0.0000E+00 0.0000E+00 0.0000E+00 0.0000E+00 0.0000E+00 0.0000E+00 0.0000E+00 0.0000E+00 0.0000E+00 0.0000E+00
 BOUNDARY OUTFLOWS    0.0000E+00 0.0000E+00 0.0000E+00 0.0000E+00 0.0000E+00 0.0000E+00 0.0000E+00 0.0000E+00 0.0000E+00 0.0000E+00
                      CWTOT      POCW       SSW        DOCW       AOCW       DOCB       POCB       DOCSUB     POCSUB     CBTOT      
                                                                                                                                    
 CONCENTRATION                           
 obs_1                6.7982E-05 2.6943E+00 1.0036E+01 3.4653E+00 1.8546E+00 9.0436E+01 4.6632E+04 7.0000E+01 4.7500E+04 1.9235E+00
 SWT_Normal           6.7982E-05 2.6943E+00 1.0036E+01 3.4653E+00 1.8546E+00 9.0436E+01 4.6632E+04 7.0000E+01 4.7500E+04 1.9235E+00
 
 TOTAL MASS IN SYSTEM 3.0520E+04
 CHANGES BY PROCESSES 0.0000E+00
 CHANGES BY LOADS     0.0000E+00
 BOUNDARY INFLOWS     0.0000E+00
 BOUNDARY OUTFLOWS    0.0000E+00
                      CSUBT      
                                 
 CONCENTRATION                           
 obs_1                2.1800E+00
 SWT_Normal           2.1800E+00
 
  63.11% Completed


 DUMP OF INTERMEDIATE RESULTS IN SELECTED SEGMENTS
  TIME = 231D  0H  0M  0S .
 
 TOTAL MASS IN SYSTEM 1.3542E+00 5.3834E+04 2.0067E+05 6.9046E+04 3.6133E+04 1.2662E+06 6.5280E+08 9.8000E+05 6.6500E+08 2.6828E+04
 CHANGES BY PROCESSES-5.3943E-03-5.2062E+01-4.2891E+01-2.6014E+02-9.5797E+02 1.4237E+02-4.3257E+04 0.0000E+00 0.0000E+00-1.0066E+02
 CHANGES BY LOADS     0.0000E+00 0.0000E+00 0.0000E+00 0.0000E+00 0.0000E+00 0.0000E+00 0.0000E+00 0.0000E+00 0.0000E+00 0.0000E+00
 BOUNDARY INFLOWS     0.0000E+00 0.0000E+00 0.0000E+00 0.0000E+00 0.0000E+00 0.0000E+00 0.0000E+00 0.0000E+00 0.0000E+00 0.0000E+00
 BOUNDARY OUTFLOWS    0.0000E+00 0.0000E+00 0.0000E+00 0.0000E+00 0.0000E+00 0.0000E+00 0.0000E+00 0.0000E+00 0.0000E+00 0.0000E+00
                      CWTOT      POCW       SSW        DOCW       AOCW       DOCB       POCB       DOCSUB     POCSUB     CBTOT      
                                                                                                                                    
 CONCENTRATION                           
 obs_1                6.7712E-05 2.6917E+00 1.0034E+01 3.4523E+00 1.8067E+00 9.0446E+01 4.6629E+04 7.0000E+01 4.7500E+04 1.9163E+00
 SWT_Normal           6.7712E-05 2.6917E+00 1.0034E+01 3.4523E+00 1.8067E+00 9.0446E+01 4.6629E+04 7.0000E+01 4.7500E+04 1.9163E+00
 
 TOTAL MASS IN SYSTEM 3.0520E+04
 CHANGES BY PROCESSES 0.0000E+00
 CHANGES BY LOADS     0.0000E+00
 BOUNDARY INFLOWS     0.0000E+00
 BOUNDARY OUTFLOWS    0.0000E+00
                      CSUBT      
                                 
 CONCENTRATION                           
 obs_1                2.1800E+00
 SWT_Normal           2.1800E+00
 
1
                                             Water quality calculation Sobek-WQ      
                                                                                     
                                                                              mass/m2
                                             T0: 1996.01.01 00:00:00  (scu=       1s)
  65.02% Completed


 DUMP OF INTERMEDIATE RESULTS IN SELECTED SEGMENTS
  TIME = 238D  0H  0M  0S .
 
 TOTAL MASS IN SYSTEM 1.3488E+00 5.3780E+04 2.0063E+05 6.8701E+04 3.5175E+04 1.2663E+06 6.5274E+08 9.8000E+05 6.6500E+08 2.6728E+04
 CHANGES BY PROCESSES-5.3933E-03-5.4156E+01-4.2891E+01-3.4571E+02-9.5797E+02 9.0994E+01-6.2142E+04 0.0000E+00 0.0000E+00-9.9907E+01
 CHANGES BY LOADS     0.0000E+00 0.0000E+00 0.0000E+00 0.0000E+00 0.0000E+00 0.0000E+00 0.0000E+00 0.0000E+00 0.0000E+00 0.0000E+00
 BOUNDARY INFLOWS     0.0000E+00 0.0000E+00 0.0000E+00 0.0000E+00 0.0000E+00 0.0000E+00 0.0000E+00 0.0000E+00 0.0000E+00 0.0000E+00
 BOUNDARY OUTFLOWS    0.0000E+00 0.0000E+00 0.0000E+00 0.0000E+00 0.0000E+00 0.0000E+00 0.0000E+00 0.0000E+00 0.0000E+00 0.0000E+00
                      CWTOT      POCW       SSW        DOCW       AOCW       DOCB       POCB       DOCSUB     POCSUB     CBTOT      
                                                                                                                                    
 CONCENTRATION                           
 obs_1                6.7442E-05 2.6890E+00 1.0032E+01 3.4350E+00 1.7588E+00 9.0453E+01 4.6624E+04 7.0000E+01 4.7500E+04 1.9091E+00
 SWT_Normal           6.7442E-05 2.6890E+00 1.0032E+01 3.4350E+00 1.7588E+00 9.0453E+01 4.6624E+04 7.0000E+01 4.7500E+04 1.9091E+00
 
 TOTAL MASS IN SYSTEM 3.0520E+04
 CHANGES BY PROCESSES 0.0000E+00
 CHANGES BY LOADS     0.0000E+00
 BOUNDARY INFLOWS     0.0000E+00
 BOUNDARY OUTFLOWS    0.0000E+00
                      CSUBT      
                                 
 CONCENTRATION                           
 obs_1                2.1800E+00
 SWT_Normal           2.1800E+00
 
  66.93% Completed


 DUMP OF INTERMEDIATE RESULTS IN SELECTED SEGMENTS
  TIME = 245D  0H  0M  0S .
 
 TOTAL MASS IN SYSTEM 1.3435E+00 5.3724E+04 2.0059E+05 6.8290E+04 3.4217E+04 1.2664E+06 6.5266E+08 9.8000E+05 6.6500E+08 2.6629E+04
 CHANGES BY PROCESSES-5.3848E-03-5.6232E+01-4.2844E+01-4.1019E+02-9.5797E+02 4.0023E+01-8.0928E+04 0.0000E+00 0.0000E+00-9.9161E+01
 CHANGES BY LOADS     0.0000E+00 0.0000E+00 0.0000E+00 0.0000E+00 0.0000E+00 0.0000E+00 0.0000E+00 0.0000E+00 0.0000E+00 0.0000E+00
 BOUNDARY INFLOWS     0.0000E+00 0.0000E+00 0.0000E+00 0.0000E+00 0.0000E+00 0.0000E+00 0.0000E+00 0.0000E+00 0.0000E+00 0.0000E+00
 BOUNDARY OUTFLOWS    0.0000E+00 0.0000E+00 0.0000E+00 0.0000E+00 0.0000E+00 0.0000E+00 0.0000E+00 0.0000E+00 0.0000E+00 0.0000E+00
                      CWTOT      POCW       SSW        DOCW       AOCW       DOCB       POCB       DOCSUB     POCSUB     CBTOT      
                                                                                                                                    
 CONCENTRATION                           
 obs_1                6.7173E-05 2.6862E+00 1.0029E+01 3.4145E+00 1.7109E+00 9.0456E+01 4.6618E+04 7.0000E+01 4.7500E+04 1.9020E+00
 SWT_Normal           6.7173E-05 2.6862E+00 1.0029E+01 3.4145E+00 1.7109E+00 9.0456E+01 4.6618E+04 7.0000E+01 4.7500E+04 1.9020E+00
 
 TOTAL MASS IN SYSTEM 3.0520E+04
 CHANGES BY PROCESSES 0.0000E+00
 CHANGES BY LOADS     0.0000E+00
 BOUNDARY INFLOWS     0.0000E+00
 BOUNDARY OUTFLOWS    0.0000E+00
                      CSUBT      
                                 
 CONCENTRATION                           
 obs_1                2.1800E+00
 SWT_Normal           2.1800E+00
 
1
                                             Water quality calculation Sobek-WQ      
                                                                                     
                                                                              mass/m2
                                             T0: 1996.01.01 00:00:00  (scu=       1s)
  68.84% Completed


 DUMP OF INTERMEDIATE RESULTS IN SELECTED SEGMENTS
  TIME = 252D  0H  0M  0S .
 
 TOTAL MASS IN SYSTEM 1.3379E+00 5.3641E+04 2.0052E+05 6.7788E+04 3.2516E+04 1.2664E+06 6.5255E+08 9.8000E+05 6.6500E+08 2.6530E+04
 CHANGES BY PROCESSES-5.5141E-03-8.2750E+01-7.0531E+01-5.0261E+02-1.7014E+03-1.0271E+01-1.0478E+05 0.0000E+00 0.0000E+00-9.8414E+01
 CHANGES BY LOADS     0.0000E+00 0.0000E+00 0.0000E+00 0.0000E+00 0.0000E+00 0.0000E+00 0.0000E+00 0.0000E+00 0.0000E+00 0.0000E+00
 BOUNDARY INFLOWS     0.0000E+00 0.0000E+00 0.0000E+00 0.0000E+00 0.0000E+00 0.0000E+00 0.0000E+00 0.0000E+00 0.0000E+00 0.0000E+00
 BOUNDARY OUTFLOWS    0.0000E+00 0.0000E+00 0.0000E+00 0.0000E+00 0.0000E+00 0.0000E+00 0.0000E+00 0.0000E+00 0.0000E+00 0.0000E+00
                      CWTOT      POCW       SSW        DOCW       AOCW       DOCB       POCB       DOCSUB     POCSUB     CBTOT      
                                                                                                                                    
 CONCENTRATION                           
 obs_1                6.6897E-05 2.6821E+00 1.0026E+01 3.3894E+00 1.6258E+00 9.0455E+01 4.6611E+04 7.0000E+01 4.7500E+04 1.8950E+00
 SWT_Normal           6.6897E-05 2.6821E+00 1.0026E+01 3.3894E+00 1.6258E+00 9.0455E+01 4.6611E+04 7.0000E+01 4.7500E+04 1.8950E+00
 
 TOTAL MASS IN SYSTEM 3.0520E+04
 CHANGES BY PROCESSES 0.0000E+00
 CHANGES BY LOADS     0.0000E+00
 BOUNDARY INFLOWS     0.0000E+00
 BOUNDARY OUTFLOWS    0.0000E+00
                      CSUBT      
                                 
 CONCENTRATION                           
 obs_1                2.1800E+00
 SWT_Normal           2.1800E+00
 
  70.76% Completed


 DUMP OF INTERMEDIATE RESULTS IN SELECTED SEGMENTS
  TIME = 259D  0H  0M  0S .
 
 TOTAL MASS IN SYSTEM 1.3323E+00 5.3530E+04 2.0043E+05 6.7115E+04 3.0553E+04 1.2663E+06 6.5241E+08 9.8000E+05 6.6500E+08 2.6433E+04
 CHANGES BY PROCESSES-5.6338E-03-1.1098E+02-8.7516E+01-6.7290E+02-1.9629E+03-6.4725E+01-1.4139E+05 0.0000E+00 0.0000E+00-9.7641E+01
 CHANGES BY LOADS     0.0000E+00 0.0000E+00 0.0000E+00 0.0000E+00 0.0000E+00 0.0000E+00 0.0000E+00 0.0000E+00 0.0000E+00 0.0000E+00
 BOUNDARY INFLOWS     0.0000E+00 0.0000E+00 0.0000E+00 0.0000E+00 0.0000E+00 0.0000E+00 0.0000E+00 0.0000E+00 0.0000E+00 0.0000E+00
 BOUNDARY OUTFLOWS    0.0000E+00 0.0000E+00 0.0000E+00 0.0000E+00 0.0000E+00 0.0000E+00 0.0000E+00 0.0000E+00 0.0000E+00 0.0000E+00
                      CWTOT      POCW       SSW        DOCW       AOCW       DOCB       POCB       DOCSUB     POCSUB     CBTOT      
                                                                                                                                    
 CONCENTRATION                           
 obs_1                6.6616E-05 2.6765E+00 1.0022E+01 3.3557E+00 1.5276E+00 9.0450E+01 4.6601E+04 7.0000E+01 4.7500E+04 1.8880E+00
 SWT_Normal           6.6616E-05 2.6765E+00 1.0022E+01 3.3557E+00 1.5276E+00 9.0450E+01 4.6601E+04 7.0000E+01 4.7500E+04 1.8880E+00
 
 TOTAL MASS IN SYSTEM 3.0520E+04
 CHANGES BY PROCESSES 0.0000E+00
 CHANGES BY LOADS     0.0000E+00
 BOUNDARY INFLOWS     0.0000E+00
 BOUNDARY OUTFLOWS    0.0000E+00
                      CSUBT      
                                 
 CONCENTRATION                           
 obs_1                2.1800E+00
 SWT_Normal           2.1800E+00
 
1
                                             Water quality calculation Sobek-WQ      
                                                                                     
                                                                              mass/m2
                                             T0: 1996.01.01 00:00:00  (scu=       1s)
  72.67% Completed


 DUMP OF INTERMEDIATE RESULTS IN SELECTED SEGMENTS
  TIME = 266D  0H  0M  0S .
 
 TOTAL MASS IN SYSTEM 1.3267E+00 5.3413E+04 2.0034E+05 6.6298E+04 2.8574E+04 1.2662E+06 6.5223E+08 9.8000E+05 6.6500E+08 2.6336E+04
 CHANGES BY PROCESSES-5.6619E-03-1.1741E+02-8.8469E+01-8.1716E+02-1.9788E+03-1.2710E+02-1.8001E+05 0.0000E+00 0.0000E+00-9.6860E+01
 CHANGES BY LOADS     0.0000E+00 0.0000E+00 0.0000E+00 0.0000E+00 0.0000E+00 0.0000E+00 0.0000E+00 0.0000E+00 0.0000E+00 0.0000E+00
 BOUNDARY INFLOWS     0.0000E+00 0.0000E+00 0.0000E+00 0.0000E+00 0.0000E+00 0.0000E+00 0.0000E+00 0.0000E+00 0.0000E+00 0.0000E+00
 BOUNDARY OUTFLOWS    0.0000E+00 0.0000E+00 0.0000E+00 0.0000E+00 0.0000E+00 0.0000E+00 0.0000E+00 0.0000E+00 0.0000E+00 0.0000E+00
                      CWTOT      POCW       SSW        DOCW       AOCW       DOCB       POCB       DOCSUB     POCSUB     CBTOT      
                                                                                                                                    
 CONCENTRATION                           
 obs_1                6.6333E-05 2.6706E+00 1.0017E+01 3.3149E+00 1.4287E+00 9.0441E+01 4.6588E+04 7.0000E+01 4.7500E+04 1.8811E+00
 SWT_Normal           6.6333E-05 2.6706E+00 1.0017E+01 3.3149E+00 1.4287E+00 9.0441E+01 4.6588E+04 7.0000E+01 4.7500E+04 1.8811E+00
 
 TOTAL MASS IN SYSTEM 3.0520E+04
 CHANGES BY PROCESSES 0.0000E+00
 CHANGES BY LOADS     0.0000E+00
 BOUNDARY INFLOWS     0.0000E+00
 BOUNDARY OUTFLOWS    0.0000E+00
                      CSUBT      
                                 
 CONCENTRATION                           
 obs_1                2.1800E+00
 SWT_Normal           2.1800E+00
 
  74.58% Completed


 DUMP OF INTERMEDIATE RESULTS IN SELECTED SEGMENTS
  TIME = 273D  0H  0M  0S .
 
 TOTAL MASS IN SYSTEM 1.3210E+00 5.3291E+04 2.0025E+05 6.5371E+04 2.6594E+04 1.2660E+06 6.5201E+08 9.8000E+05 6.6500E+08 2.6240E+04
 CHANGES BY PROCESSES-5.6724E-03-1.2180E+02-8.8438E+01-9.2677E+02-1.9797E+03-1.9532E+02-2.1856E+05 0.0000E+00 0.0000E+00-9.6083E+01
 CHANGES BY LOADS     0.0000E+00 0.0000E+00 0.0000E+00 0.0000E+00 0.0000E+00 0.0000E+00 0.0000E+00 0.0000E+00 0.0000E+00 0.0000E+00
 BOUNDARY INFLOWS     0.0000E+00 0.0000E+00 0.0000E+00 0.0000E+00 0.0000E+00 0.0000E+00 0.0000E+00 0.0000E+00 0.0000E+00 0.0000E+00
 BOUNDARY OUTFLOWS    0.0000E+00 0.0000E+00 0.0000E+00 0.0000E+00 0.0000E+00 0.0000E+00 0.0000E+00 0.0000E+00 0.0000E+00 0.0000E+00
                      CWTOT      POCW       SSW        DOCW       AOCW       DOCB       POCB       DOCSUB     POCSUB     CBTOT      
                                                                                                                                    
 CONCENTRATION                           
 obs_1                6.6049E-05 2.6645E+00 1.0013E+01 3.2685E+00 1.3297E+00 9.0427E+01 4.6572E+04 7.0000E+01 4.7500E+04 1.8743E+00
 SWT_Normal           6.6049E-05 2.6645E+00 1.0013E+01 3.2685E+00 1.3297E+00 9.0427E+01 4.6572E+04 7.0000E+01 4.7500E+04 1.8743E+00
 
 TOTAL MASS IN SYSTEM 3.0520E+04
 CHANGES BY PROCESSES 0.0000E+00
 CHANGES BY LOADS     0.0000E+00
 BOUNDARY INFLOWS     0.0000E+00
 BOUNDARY OUTFLOWS    0.0000E+00
                      CSUBT      
                                 
 CONCENTRATION                           
 obs_1                2.1800E+00
 SWT_Normal           2.1800E+00
 
1
                                             Water quality calculation Sobek-WQ      
                                                                                     
                                                                              mass/m2
                                             T0: 1996.01.01 00:00:00  (scu=       1s)
  76.49% Completed


 DUMP OF INTERMEDIATE RESULTS IN SELECTED SEGMENTS
  TIME = 280D  0H  0M  0S .
 
 TOTAL MASS IN SYSTEM 1.3152E+00 5.3142E+04 2.0014E+05 6.4328E+04 2.3756E+04 1.2657E+06 6.5175E+08 9.8000E+05 6.6500E+08 2.6144E+04
 CHANGES BY PROCESSES-5.8138E-03-1.4886E+02-1.1736E+02-1.0428E+03-2.8380E+03-2.6732E+02-2.6076E+05 0.0000E+00 0.0000E+00-9.5307E+01
 CHANGES BY LOADS     0.0000E+00 0.0000E+00 0.0000E+00 0.0000E+00 0.0000E+00 0.0000E+00 0.0000E+00 0.0000E+00 0.0000E+00 0.0000E+00
 BOUNDARY INFLOWS     0.0000E+00 0.0000E+00 0.0000E+00 0.0000E+00 0.0000E+00 0.0000E+00 0.0000E+00 0.0000E+00 0.0000E+00 0.0000E+00
 BOUNDARY OUTFLOWS    0.0000E+00 0.0000E+00 0.0000E+00 0.0000E+00 0.0000E+00 0.0000E+00 0.0000E+00 0.0000E+00 0.0000E+00 0.0000E+00
                      CWTOT      POCW       SSW        DOCW       AOCW       DOCB       POCB       DOCSUB     POCSUB     CBTOT      
                                                                                                                                    
 CONCENTRATION                           
 obs_1                6.5758E-05 2.6571E+00 1.0007E+01 3.2164E+00 1.1878E+00 9.0408E+01 4.6554E+04 7.0000E+01 4.7500E+04 1.8675E+00
 SWT_Normal           6.5758E-05 2.6571E+00 1.0007E+01 3.2164E+00 1.1878E+00 9.0408E+01 4.6554E+04 7.0000E+01 4.7500E+04 1.8675E+00
 
 TOTAL MASS IN SYSTEM 3.0520E+04
 CHANGES BY PROCESSES 0.0000E+00
 CHANGES BY LOADS     0.0000E+00
 BOUNDARY INFLOWS     0.0000E+00
 BOUNDARY OUTFLOWS    0.0000E+00
                      CSUBT      
                                 
 CONCENTRATION                           
 obs_1                2.1800E+00
 SWT_Normal           2.1800E+00
 
  78.41% Completed


 DUMP OF INTERMEDIATE RESULTS IN SELECTED SEGMENTS
  TIME = 287D  0H  0M  0S .
 
[...]
 SWT_Normal           6.5140E-05 2.6347E+00 9.9899E+00 3.0704E+00 8.0825E-01 9.0351E+01 4.6502E+04 7.0000E+01 4.7500E+04 1.8540E+00
 
 TOTAL MASS IN SYSTEM 3.0520E+04
 CHANGES BY PROCESSES 0.0000E+00
 CHANGES BY LOADS     0.0000E+00
 BOUNDARY INFLOWS     0.0000E+00
 BOUNDARY OUTFLOWS    0.0000E+00
                      CSUBT      
                                 
 CONCENTRATION                           
 obs_1                2.1800E+00
 SWT_Normal           2.1800E+00
 
  82.23% Completed


 DUMP OF INTERMEDIATE RESULTS IN SELECTED SEGMENTS
  TIME = 301D  0H  0M  0S .
 
 TOTAL MASS IN SYSTEM 1.2965E+00 5.2452E+04 1.9963E+05 5.9601E+04 1.2333E+04 1.2644E+06 6.5055E+08 9.8000E+05 6.6500E+08 2.5863E+04
 CHANGES BY PROCESSES-6.2763E-03-2.4143E+02-1.7102E+02-1.8067E+03-3.8316E+03-5.5925E+02-4.7545E+05 0.0000E+00 0.0000E+00-9.2791E+01
 CHANGES BY LOADS     0.0000E+00 0.0000E+00 0.0000E+00 0.0000E+00 0.0000E+00 0.0000E+00 0.0000E+00 0.0000E+00 0.0000E+00 0.0000E+00
 BOUNDARY INFLOWS     0.0000E+00 0.0000E+00 0.0000E+00 0.0000E+00 0.0000E+00 0.0000E+00 0.0000E+00 0.0000E+00 0.0000E+00 0.0000E+00
 BOUNDARY OUTFLOWS    0.0000E+00 0.0000E+00 0.0000E+00 0.0000E+00 0.0000E+00 0.0000E+00 0.0000E+00 0.0000E+00 0.0000E+00 0.0000E+00
                      CWTOT      POCW       SSW        DOCW       AOCW       DOCB       POCB       DOCSUB     POCSUB     CBTOT      
                                                                                                                                    
 CONCENTRATION                           
 obs_1                6.4827E-05 2.6226E+00 9.9814E+00 2.9800E+00 6.1666E-01 9.0312E+01 4.6468E+04 7.0000E+01 4.7500E+04 1.8474E+00
 SWT_Normal           6.4827E-05 2.6226E+00 9.9814E+00 2.9800E+00 6.1666E-01 9.0312E+01 4.6468E+04 7.0000E+01 4.7500E+04 1.8474E+00
 
 TOTAL MASS IN SYSTEM 3.0520E+04
 CHANGES BY PROCESSES 0.0000E+00
 CHANGES BY LOADS     0.0000E+00
 BOUNDARY INFLOWS     0.0000E+00
 BOUNDARY OUTFLOWS    0.0000E+00
                      CSUBT      
                                 
 CONCENTRATION                           
 obs_1                2.1800E+00
 SWT_Normal           2.1800E+00
 
1
                                             Water quality calculation Sobek-WQ      
                                                                                     
                                                                              mass/m2
                                             T0: 1996.01.01 00:00:00  (scu=       1s)
  84.14% Completed


 DUMP OF INTERMEDIATE RESULTS IN SELECTED SEGMENTS
  TIME = 308D  0H  0M  0S .
 
 TOTAL MASS IN SYSTEM 1.2902E+00 5.2206E+04 1.9946E+05 5.7639E+04 8.8592E+03 1.2637E+06 6.5000E+08 9.8000E+05 6.6500E+08 2.5772E+04
 CHANGES BY PROCESSES-6.2828E-03-2.4622E+02-1.6445E+02-1.9619E+03-3.4741E+03-6.8272E+02-5.4908E+05 0.0000E+00 0.0000E+00-9.1945E+01
 CHANGES BY LOADS     0.0000E+00 0.0000E+00 0.0000E+00 0.0000E+00 0.0000E+00 0.0000E+00 0.0000E+00 0.0000E+00 0.0000E+00 0.0000E+00
 BOUNDARY INFLOWS     0.0000E+00 0.0000E+00 0.0000E+00 0.0000E+00 0.0000E+00 0.0000E+00 0.0000E+00 0.0000E+00 0.0000E+00 0.0000E+00
 BOUNDARY OUTFLOWS    0.0000E+00 0.0000E+00 0.0000E+00 0.0000E+00 0.0000E+00 0.0000E+00 0.0000E+00 0.0000E+00 0.0000E+00 0.0000E+00
                      CWTOT      POCW       SSW        DOCW       AOCW       DOCB       POCB       DOCSUB     POCSUB     CBTOT      
                                                                                                                                    
 CONCENTRATION                           
 obs_1                6.4512E-05 2.6103E+00 9.9731E+00 2.8819E+00 4.4296E-01 9.0263E+01 4.6429E+04 7.0000E+01 4.7500E+04 1.8408E+00
 SWT_Normal           6.4512E-05 2.6103E+00 9.9731E+00 2.8819E+00 4.4296E-01 9.0263E+01 4.6429E+04 7.0000E+01 4.7500E+04 1.8408E+00
 
 TOTAL MASS IN SYSTEM 3.0520E+04
 CHANGES BY PROCESSES 0.0000E+00
 CHANGES BY LOADS     0.0000E+00
 BOUNDARY INFLOWS     0.0000E+00
 BOUNDARY OUTFLOWS    0.0000E+00
                      CSUBT      
                                 
 CONCENTRATION                           
 obs_1                2.1800E+00
 SWT_Normal           2.1800E+00
 
  86.06% Completed


 DUMP OF INTERMEDIATE RESULTS IN SELECTED SEGMENTS
  TIME = 315D  0H  0M  0S .
 
 TOTAL MASS IN SYSTEM 1.2845E+00 5.2050E+04 1.9940E+05 5.5775E+04 7.5217E+03 1.2629E+06 6.4940E+08 9.8000E+05 6.6500E+08 2.5680E+04
 CHANGES BY PROCESSES-5.7681E-03-1.5518E+02-6.5422E+01-1.8640E+03-1.3375E+03-8.0939E+02-5.9631E+05 0.0000E+00 0.0000E+00-9.1137E+01
 CHANGES BY LOADS     0.0000E+00 0.0000E+00 0.0000E+00 0.0000E+00 0.0000E+00 0.0000E+00 0.0000E+00 0.0000E+00 0.0000E+00 0.0000E+00
 BOUNDARY INFLOWS     0.0000E+00 0.0000E+00 0.0000E+00 0.0000E+00 0.0000E+00 0.0000E+00 0.0000E+00 0.0000E+00 0.0000E+00 0.0000E+00
 BOUNDARY OUTFLOWS    0.0000E+00 0.0000E+00 0.0000E+00 0.0000E+00 0.0000E+00 0.0000E+00 0.0000E+00 0.0000E+00 0.0000E+00 0.0000E+00
                      CWTOT      POCW       SSW        DOCW       AOCW       DOCB       POCB       DOCSUB     POCSUB     CBTOT      
                                                                                                                                    
 CONCENTRATION                           
 obs_1                6.4224E-05 2.6025E+00 9.9699E+00 2.7887E+00 3.7608E-01 9.0205E+01 4.6386E+04 7.0000E+01 4.7500E+04 1.8343E+00
 SWT_Normal           6.4224E-05 2.6025E+00 9.9699E+00 2.7887E+00 3.7608E-01 9.0205E+01 4.6386E+04 7.0000E+01 4.7500E+04 1.8343E+00
 
 TOTAL MASS IN SYSTEM 3.0520E+04
 CHANGES BY PROCESSES 0.0000E+00
 CHANGES BY LOADS     0.0000E+00
 BOUNDARY INFLOWS     0.0000E+00
 BOUNDARY OUTFLOWS    0.0000E+00
                      CSUBT      
                                 
 CONCENTRATION                           
 obs_1                2.1800E+00
 SWT_Normal           2.1800E+00
 
1
                                             Water quality calculation Sobek-WQ      
                                                                                     
                                                                              mass/m2
                                             T0: 1996.01.01 00:00:00  (scu=       1s)
  87.97% Completed


 DUMP OF INTERMEDIATE RESULTS IN SELECTED SEGMENTS
  TIME = 322D  0H  0M  0S .
 
 TOTAL MASS IN SYSTEM 1.2789E+00 5.1931E+04 1.9935E+05 5.4192E+04 6.5107E+03 1.2620E+06 6.4879E+08 9.8000E+05 6.6500E+08 2.5590E+04
 CHANGES BY PROCESSES-5.5324E-03-1.1945E+02-4.4562E+01-1.5826E+03-1.0110E+03-9.1892E+02-6.1594E+05 0.0000E+00 0.0000E+00-9.0410E+01
 CHANGES BY LOADS     0.0000E+00 0.0000E+00 0.0000E+00 0.0000E+00 0.0000E+00 0.0000E+00 0.0000E+00 0.0000E+00 0.0000E+00 0.0000E+00
 BOUNDARY INFLOWS     0.0000E+00 0.0000E+00 0.0000E+00 0.0000E+00 0.0000E+00 0.0000E+00 0.0000E+00 0.0000E+00 0.0000E+00 0.0000E+00
 BOUNDARY OUTFLOWS    0.0000E+00 0.0000E+00 0.0000E+00 0.0000E+00 0.0000E+00 0.0000E+00 0.0000E+00 0.0000E+00 0.0000E+00 0.0000E+00
                      CWTOT      POCW       SSW        DOCW       AOCW       DOCB       POCB       DOCSUB     POCSUB     CBTOT      
                                                                                                                                    
 CONCENTRATION                           
 obs_1                6.3947E-05 2.5965E+00 9.9676E+00 2.7096E+00 3.2553E-01 9.0139E+01 4.6342E+04 7.0000E+01 4.7500E+04 1.8279E+00
 SWT_Normal           6.3947E-05 2.5965E+00 9.9676E+00 2.7096E+00 3.2553E-01 9.0139E+01 4.6342E+04 7.0000E+01 4.7500E+04 1.8279E+00
 
 TOTAL MASS IN SYSTEM 3.0520E+04
 CHANGES BY PROCESSES 0.0000E+00
 CHANGES BY LOADS     0.0000E+00
 BOUNDARY INFLOWS     0.0000E+00
 BOUNDARY OUTFLOWS    0.0000E+00
                      CSUBT      
                                 
 CONCENTRATION                           
 obs_1                2.1800E+00
 SWT_Normal           2.1800E+00
 
  89.88% Completed


 DUMP OF INTERMEDIATE RESULTS IN SELECTED SEGMENTS
  TIME = 329D  0H  0M  0S .
 
 TOTAL MASS IN SYSTEM 1.2735E+00 5.1813E+04 1.9931E+05 5.2840E+04 5.5195E+03 1.2609E+06 6.4816E+08 9.8000E+05 6.6500E+08 2.5500E+04
 CHANGES BY PROCESSES-5.4182E-03-1.1843E+02-4.3219E+01-1.3525E+03-9.9118E+02-1.0051E+03-6.3271E+05 0.0000E+00 0.0000E+00-8.9703E+01
 CHANGES BY LOADS     0.0000E+00 0.0000E+00 0.0000E+00 0.0000E+00 0.0000E+00 0.0000E+00 0.0000E+00 0.0000E+00 0.0000E+00 0.0000E+00
 BOUNDARY INFLOWS     0.0000E+00 0.0000E+00 0.0000E+00 0.0000E+00 0.0000E+00 0.0000E+00 0.0000E+00 0.0000E+00 0.0000E+00 0.0000E+00
 BOUNDARY OUTFLOWS    0.0000E+00 0.0000E+00 0.0000E+00 0.0000E+00 0.0000E+00 0.0000E+00 0.0000E+00 0.0000E+00 0.0000E+00 0.0000E+00
                      CWTOT      POCW       SSW        DOCW       AOCW       DOCB       POCB       DOCSUB     POCSUB     CBTOT      
                                                                                                                                    
 CONCENTRATION                           
 obs_1                6.3677E-05 2.5906E+00 9.9655E+00 2.6420E+00 2.7598E-01 9.0068E+01 4.6297E+04 7.0000E+01 4.7500E+04 1.8214E+00
 SWT_Normal           6.3677E-05 2.5906E+00 9.9655E+00 2.6420E+00 2.7598E-01 9.0068E+01 4.6297E+04 7.0000E+01 4.7500E+04 1.8214E+00
 
 TOTAL MASS IN SYSTEM 3.0520E+04
 CHANGES BY PROCESSES 0.0000E+00
 CHANGES BY LOADS     0.0000E+00
 BOUNDARY INFLOWS     0.0000E+00
 BOUNDARY OUTFLOWS    0.0000E+00
                      CSUBT      
                                 
 CONCENTRATION                           
 obs_1                2.1800E+00
 SWT_Normal           2.1800E+00
 
1
                                             Water quality calculation Sobek-WQ      
                                                                                     
                                                                              mass/m2
                                             T0: 1996.01.01 00:00:00  (scu=       1s)
  91.79% Completed


 DUMP OF INTERMEDIATE RESULTS IN SELECTED SEGMENTS
  TIME = 336D  0H  0M  0S .
 
 TOTAL MASS IN SYSTEM 1.2682E+00 5.1692E+04 1.9927E+05 5.1660E+04 4.5295E+03 1.2599E+06 6.4751E+08 9.8000E+05 6.6500E+08 2.5411E+04
 CHANGES BY PROCESSES-5.3292E-03-1.2003E+02-4.3109E+01-1.1797E+03-9.8998E+02-1.0733E+03-6.4922E+05 0.0000E+00 0.0000E+00-8.9000E+01
 CHANGES BY LOADS     0.0000E+00 0.0000E+00 0.0000E+00 0.0000E+00 0.0000E+00 0.0000E+00 0.0000E+00 0.0000E+00 0.0000E+00 0.0000E+00
 BOUNDARY INFLOWS     0.0000E+00 0.0000E+00 0.0000E+00 0.0000E+00 0.0000E+00 0.0000E+00 0.0000E+00 0.0000E+00 0.0000E+00 0.0000E+00
 BOUNDARY OUTFLOWS    0.0000E+00 0.0000E+00 0.0000E+00 0.0000E+00 0.0000E+00 0.0000E+00 0.0000E+00 0.0000E+00 0.0000E+00 0.0000E+00
                      CWTOT      POCW       SSW        DOCW       AOCW       DOCB       POCB       DOCSUB     POCSUB     CBTOT      
                                                                                                                                    
 CONCENTRATION                           
 obs_1                6.3410E-05 2.5846E+00 9.9633E+00 2.5830E+00 2.2648E-01 8.9991E+01 4.6250E+04 7.0000E+01 4.7500E+04 1.8151E+00
 SWT_Normal           6.3410E-05 2.5846E+00 9.9633E+00 2.5830E+00 2.2648E-01 8.9991E+01 4.6250E+04 7.0000E+01 4.7500E+04 1.8151E+00
 
 TOTAL MASS IN SYSTEM 3.0520E+04
 CHANGES BY PROCESSES 0.0000E+00
 CHANGES BY LOADS     0.0000E+00
 BOUNDARY INFLOWS     0.0000E+00
 BOUNDARY OUTFLOWS    0.0000E+00
                      CSUBT      
                                 
 CONCENTRATION                           
 obs_1                2.1800E+00
 SWT_Normal           2.1800E+00
 
  93.71% Completed


 DUMP OF INTERMEDIATE RESULTS IN SELECTED SEGMENTS
  TIME = 343D  0H  0M  0S .
 
 TOTAL MASS IN SYSTEM 1.2630E+00 5.1583E+04 1.9924E+05 5.0631E+04 3.9113E+03 1.2587E+06 6.4684E+08 9.8000E+05 6.6500E+08 2.5323E+04
 CHANGES BY PROCESSES-5.1856E-03-1.0953E+02-2.9250E+01-1.0290E+03-6.1819E+02-1.1285E+03-6.6306E+05 0.0000E+00 0.0000E+00-8.8305E+01
 CHANGES BY LOADS     0.0000E+00 0.0000E+00 0.0000E+00 0.0000E+00 0.0000E+00 0.0000E+00 0.0000E+00 0.0000E+00 0.0000E+00 0.0000E+00
 BOUNDARY INFLOWS     0.0000E+00 0.0000E+00 0.0000E+00 0.0000E+00 0.0000E+00 0.0000E+00 0.0000E+00 0.0000E+00 0.0000E+00 0.0000E+00
 BOUNDARY OUTFLOWS    0.0000E+00 0.0000E+00 0.0000E+00 0.0000E+00 0.0000E+00 0.0000E+00 0.0000E+00 0.0000E+00 0.0000E+00 0.0000E+00
                      CWTOT      POCW       SSW        DOCW       AOCW       DOCB       POCB       DOCSUB     POCSUB     CBTOT      
                                                                                                                                    
 CONCENTRATION                           
 obs_1                6.3151E-05 2.5791E+00 9.9619E+00 2.5316E+00 1.9557E-01 8.9910E+01 4.6203E+04 7.0000E+01 4.7500E+04 1.8088E+00
 SWT_Normal           6.3151E-05 2.5791E+00 9.9619E+00 2.5316E+00 1.9557E-01 8.9910E+01 4.6203E+04 7.0000E+01 4.7500E+04 1.8088E+00
 
 TOTAL MASS IN SYSTEM 3.0520E+04
 CHANGES BY PROCESSES 0.0000E+00
 CHANGES BY LOADS     0.0000E+00
 BOUNDARY INFLOWS     0.0000E+00
 BOUNDARY OUTFLOWS    0.0000E+00
                      CSUBT      
                                 
 CONCENTRATION                           
 obs_1                2.1800E+00
 SWT_Normal           2.1800E+00
 
1
                                             Water quality calculation Sobek-WQ      
                                                                                     
                                                                              mass/m2
                                             T0: 1996.01.01 00:00:00  (scu=       1s)
  95.62% Completed


 DUMP OF INTERMEDIATE RESULTS IN SELECTED SEGMENTS
  TIME = 350D  0H  0M  0S .
 
 TOTAL MASS IN SYSTEM 1.2580E+00 5.1485E+04 1.9922E+05 4.9765E+04 3.4239E+03 1.2576E+06 6.4617E+08 9.8000E+05 6.6500E+08 2.5235E+04
 CHANGES BY PROCESSES-5.0556E-03-9.8158E+01-2.0703E+01-8.6628E+02-4.8742E+02-1.1718E+03-6.7039E+05 0.0000E+00 0.0000E+00-8.7630E+01
 CHANGES BY LOADS     0.0000E+00 0.0000E+00 0.0000E+00 0.0000E+00 0.0000E+00 0.0000E+00 0.0000E+00 0.0000E+00 0.0000E+00 0.0000E+00
 BOUNDARY INFLOWS     0.0000E+00 0.0000E+00 0.0000E+00 0.0000E+00 0.0000E+00 0.0000E+00 0.0000E+00 0.0000E+00 0.0000E+00 0.0000E+00
 BOUNDARY OUTFLOWS    0.0000E+00 0.0000E+00 0.0000E+00 0.0000E+00 0.0000E+00 0.0000E+00 0.0000E+00 0.0000E+00 0.0000E+00 0.0000E+00
                      CWTOT      POCW       SSW        DOCW       AOCW       DOCB       POCB       DOCSUB     POCSUB     CBTOT      
                                                                                                                                    
 CONCENTRATION                           
 obs_1                6.2898E-05 2.5742E+00 9.9608E+00 2.4882E+00 1.7120E-01 8.9827E+01 4.6155E+04 7.0000E+01 4.7500E+04 1.8025E+00
 SWT_Normal           6.2898E-05 2.5742E+00 9.9608E+00 2.4882E+00 1.7120E-01 8.9827E+01 4.6155E+04 7.0000E+01 4.7500E+04 1.8025E+00
 
 TOTAL MASS IN SYSTEM 3.0520E+04
 CHANGES BY PROCESSES 0.0000E+00
 CHANGES BY LOADS     0.0000E+00
 BOUNDARY INFLOWS     0.0000E+00
 BOUNDARY OUTFLOWS    0.0000E+00
                      CSUBT      
                                 
 CONCENTRATION                           
 obs_1                2.1800E+00
 SWT_Normal           2.1800E+00
 
  97.53% Completed


 DUMP OF INTERMEDIATE RESULTS IN SELECTED SEGMENTS
  TIME = 357D  0H  0M  0S .
 
 TOTAL MASS IN SYSTEM 1.2530E+00 5.1387E+04 1.9920E+05 4.9028E+04 2.9444E+03 1.2564E+06 6.4550E+08 9.8000E+05 6.6500E+08 2.5148E+04
 CHANGES BY PROCESSES-4.9774E-03-9.7686E+01-2.0219E+01-7.3674E+02-4.7949E+02-1.2040E+03-6.7659E+05 0.0000E+00 0.0000E+00-8.6964E+01
 CHANGES BY LOADS     0.0000E+00 0.0000E+00 0.0000E+00 0.0000E+00 0.0000E+00 0.0000E+00 0.0000E+00 0.0000E+00 0.0000E+00 0.0000E+00
 BOUNDARY INFLOWS     0.0000E+00 0.0000E+00 0.0000E+00 0.0000E+00 0.0000E+00 0.0000E+00 0.0000E+00 0.0000E+00 0.0000E+00 0.0000E+00
 BOUNDARY OUTFLOWS    0.0000E+00 0.0000E+00 0.0000E+00 0.0000E+00 0.0000E+00 0.0000E+00 0.0000E+00 0.0000E+00 0.0000E+00 0.0000E+00
                      CWTOT      POCW       SSW        DOCW       AOCW       DOCB       POCB       DOCSUB     POCSUB     CBTOT      
                                                                                                                                    
 CONCENTRATION                           
 obs_1                6.2649E-05 2.5694E+00 9.9598E+00 2.4514E+00 1.4722E-01 8.9741E+01 4.6107E+04 7.0000E+01 4.7500E+04 1.7963E+00
 SWT_Normal           6.2649E-05 2.5694E+00 9.9598E+00 2.4514E+00 1.4722E-01 8.9741E+01 4.6107E+04 7.0000E+01 4.7500E+04 1.7963E+00
 
 TOTAL MASS IN SYSTEM 3.0520E+04
 CHANGES BY PROCESSES 0.0000E+00
 CHANGES BY LOADS     0.0000E+00
 BOUNDARY INFLOWS     0.0000E+00
 BOUNDARY OUTFLOWS    0.0000E+00
                      CSUBT      
                                 
 CONCENTRATION                           
 obs_1                2.1800E+00
 SWT_Normal           2.1800E+00
 

 REWIND ON       UNIT:  23, READING: ..\WORK\Area.dat
 AT SIMULATION TIME:  364D  0H  0M  0S !
 TIME IN FILE:        364D  0H  0M  0S !

 REWIND ON       UNIT:  24, READING: ..\WORK\Flow.dat
 AT SIMULATION TIME:  364D  0H  0M  0S !
 TIME IN FILE:        364D  0H  0M  0S !
1
                                             Water quality calculation Sobek-WQ      
                                                                                     
                                                                              mass/m2
                                             T0: 1996.01.01 00:00:00  (scu=       1s)
  99.44% Completed


 DUMP OF INTERMEDIATE RESULTS IN SELECTED SEGMENTS
  TIME = 364D  0H  0M  0S .
 
 TOTAL MASS IN SYSTEM 1.2481E+00 5.1289E+04 1.9918E+05 4.8389E+04 2.4654E+03 1.2551E+06 6.4481E+08 9.8000E+05 6.6500E+08 2.5062E+04
 CHANGES BY PROCESSES-4.9112E-03-9.8227E+01-2.0109E+01-6.3955E+02-4.7901E+02-1.2280E+03-6.8269E+05 0.0000E+00 0.0000E+00-8.6303E+01
 CHANGES BY LOADS     0.0000E+00 0.0000E+00 0.0000E+00 0.0000E+00 0.0000E+00 0.0000E+00 0.0000E+00 0.0000E+00 0.0000E+00 0.0000E+00
 BOUNDARY INFLOWS     0.0000E+00 0.0000E+00 0.0000E+00 0.0000E+00 0.0000E+00 0.0000E+00 0.0000E+00 0.0000E+00 0.0000E+00 0.0000E+00
 BOUNDARY OUTFLOWS    0.0000E+00 0.0000E+00 0.0000E+00 0.0000E+00 0.0000E+00 0.0000E+00 0.0000E+00 0.0000E+00 0.0000E+00 0.0000E+00
                      CWTOT      POCW       SSW        DOCW       AOCW       DOCB       POCB       DOCSUB     POCSUB     CBTOT      
                                                                                                                                    
 CONCENTRATION                           
 obs_1                6.2404E-05 2.5644E+00 9.9588E+00 2.4194E+00 1.2327E-01 8.9653E+01 4.6058E+04 7.0000E+01 4.7500E+04 1.7901E+00
 SWT_Normal           6.2404E-05 2.5644E+00 9.9588E+00 2.4194E+00 1.2327E-01 8.9653E+01 4.6058E+04 7.0000E+01 4.7500E+04 1.7901E+00
 
 TOTAL MASS IN SYSTEM 3.0520E+04
 CHANGES BY PROCESSES 0.0000E+00
 CHANGES BY LOADS     0.0000E+00
 BOUNDARY INFLOWS     0.0000E+00
 BOUNDARY OUTFLOWS    0.0000E+00
                      CSUBT      
                                 
 CONCENTRATION                           
 obs_1                2.1800E+00
 SWT_Normal           2.1800E+00
 

 REWIND ON       UNIT:  20, READING: ..\WORK\Volume.dat
 AT SIMULATION TIME:  365D  0H  0M  0S !
 TIME IN FILE:        364D  0H  1M 40S !

 REWIND ON       UNIT: 801, READING: ..\work\segfun.dat
 AT SIMULATION TIME:  365D  0H  0M  0S !
 TIME IN FILE:        364D  0H  1M 40S !
 
 Simulation ended normal
 Execution stop : 2012/07/02 11:42:17 
