 Delft3D-WAQ version  4.5204 16-03-2009
 Only to be used by Erwin Meijers                           
 (c) Deltares
 Execution start: 2013/10/07 10:45:24 
       ----------> Version number of the input file is: 4.910
       ----------> Output level of the listfile is: 4


 Model :            Fraction calculation Sobek-WQ           
                                                            

 Including file: \SOBRU213\AP.LIT\WORK\DELWAQ4.INP                                                                                                                                                                                                                                                                                                                                                                                                                                                                                                                                                                                                                                                                                                                                                                                                                                                                                                                                                                                                       


 Run   :                                                    
                    T0: 1900.07.03 02:00:00  (scu=       1s)

 Intermediate version absolute timer detected !
 System clock is     1 seconds !

 Closing file: \SOBRU213\AP.LIT\WORK\DELWAQ4.INP                                             

 Continuing on file: delwaq.inp                                                                    

 Including file: ..\work\substanc.fra                                                                                                                                                                                                                                                                                                                                                                                                                                                                                                                                                                                                                                                                                                                                                                                                                                                                                                                                                                                                                    

 Number of active constituents   :  4
 Number of inactive constituents :  0
 Total number of constituents    :  4
 Number   name
    1     Check               
    2     Initial             
    3     Lateral inflow      
    4     Boundary Flow       

 Closing file: ..\work\substanc.fra                                                          

 Continuing on file: delwaq.inp                                                                    

 *********************************************************** B L O C K - 1 *****


 Including file: \SOBRU213\AP.LIT\WORK\DELWAQ1.INP                                                                                                                                                                                                                                                                                                                                                                                                                                                                                                                                                                                                                                                                                                                                                                                                                                                                                                                                                                                                       


 Factor between two clocks :       86400
 System clock in date-format  DDHHMMSS 
 Auxiliary timer in date-format DDHHMMSS 

 The auxiliary timer is not equal to the system timer.
 All the process fluxes will be scaled from the auxiliary timer to the system timer.

 Integration option :               15.60
 Start of simulation : 0Y-  0D- 0H- 0M- 0S.
 End of simulation   : 0Y-  7D- 0H- 0M- 0S.
 Selected option for time step size :  0
 Integration time stepsize is : 0Y-  0D- 1H- 0M- 0S.

 Closing file: \SOBRU213\AP.LIT\WORK\DELWAQ1.INP                                             

 Continuing on file: delwaq.inp                                                                    

 Dump areas:
 option selected for input : 1
 Information from the standard input file.

 Including file: \SOBRU213\AP.LIT\WORK\OUTLOCWQ.DAT                                                                                                                                                                                                                                                                                                                                                                                                                                                                                                                                                                                                                                                                                                                                                                                                                                                                                                                                                                                                      

 Including file: ..\work\monitor.dat                                                                                                                                                                                                                                                                                                                                                                                                                                                                                                                                                                                                                                                                                                                                                                                                                                                                                                                                                                                                                     

 Number of dump areas :  311

 Dump area :    1 : MS_AFWG_84          
 Number of segments in area :              1
          number   segment
              1             39

 Dump area :    2 : MS_AFWG_232         
 Number of segments in area :              1
          number   segment
              1            102

 Dump area :    3 : MS_AFWG_265         
 Number of segments in area :              1
          number   segment
              1            111

 Dump area :    4 : MS_AFWG_220         
 Number of segments in area :              1
          number   segment
              1            118

 Dump area :    5 : MS_AFWG_231         
 Number of segments in area :              1
          number   segment
              1            166

 Dump area :    6 : MS_AFWG_197         
 Number of segments in area :              1
          number   segment
              1            185

 Dump area :    7 : MS_AFWG_1           
 Number of segments in area :              1
          number   segment
              1            192

 Dump area :    8 : MS_AFWG_167         
 Number of segments in area :              1
          number   segment
              1            195

 Dump area :    9 : MS_AFWG_170         
 Number of segments in area :              1
          number   segment
              1            209

 Dump area :   10 : MS_AFWG_217         
 Number of segments in area :              1
          number   segment
              1            211

 Dump area :   11 : MS_AFWG_132         
 Number of segments in area :              1
          number   segment
              1            223

 Dump area :   12 : MS_AFWG_129         
 Number of segments in area :              1
          number   segment
              1            288

 Dump area :   13 : MS_AFWG_45          
 Number of segments in area :              1
          number   segment
              1            291

 Dump area :   14 : MS_AFWG_141         
 Number of segments in area :              1
          number   segment
              1            305

 Dump area :   15 : MS_AFWG_194         
 Number of segments in area :              1
          number   segment
              1            314

 Dump area :   16 : MS_AFWG_12          
 Number of segments in area :              1
          number   segment
              1            356

 Dump area :   17 : MS_AFWG_284         
 Number of segments in area :              1
          number   segment
              1            375

 Dump area :   18 : MS_AFWG_60          
 Number of segments in area :              1
          number   segment
              1            427

 Dump area :   19 : MS_AFWG_48          
 Number of segments in area :              1
          number   segment
              1            430

 Dump area :   20 : MS_AFWG_20          
 Number of segments in area :              1
          number   segment
              1            486

 Dump area :   21 : MS_AFWG_32          
 Number of segments in area :              1
          number   segment
              1            550

 Dump area :   22 : MS_AFWG_112         
 Number of segments in area :              1
          number   segment
              1            568

 Dump area :   23 : MS_AFWG_183         
 Number of segments in area :              1
          number   segment
              1            571

 Dump area :   24 : MS_AFWG_111         
 Number of segments in area :              1
          number   segment
              1            574

 Dump area :   25 : MS_AFWG_181         
 Number of segments in area :              1
          number   segment
              1            577

 Dump area :   26 : MS_AFWG_142         
 Number of segments in area :              1
          number   segment
              1            606

 Dump area :   27 : MS_AFWG_294         
 Number of segments in area :              1
          number   segment
              1            625

 Dump area :   28 : MS_AFWG_211         
 Number of segments in area :              1
          number   segment
              1            660

 Dump area :   29 : MS_AFWG_185         
 Number of segments in area :              1
          number   segment
              1            663

 Dump area :   30 : MS_AFWG_95          
 Number of segments in area :              1
          number   segment
              1            694

 Dump area :   31 : MS_AFWG_7           
 Number of segments in area :              1
          number   segment
              1            697

 Dump area :   32 : MS_AFWG_177         
 Number of segments in area :              1
          number   segment
              1            715

 Dump area :   33 : MS_AFWG_300         
 Number of segments in area :              1
          number   segment
              1            788

 Dump area :   34 : MS_AFWG_223         
 Number of segments in area :              1
          number   segment
              1            808

 Dump area :   35 : MS_AFWG_126         
 Number of segments in area :              1
          number   segment
              1            830

 Dump area :   36 : MS_AFWG_144         
 Number of segments in area :              1
          number   segment
              1            845

 Dump area :   37 : MS_AFWG_125         
 Number of segments in area :              1
          number   segment
              1            867

 Dump area :   38 : MS_AFWG_174         
 Number of segments in area :              1
          number   segment
              1            875

 Dump area :   39 : MS_AFWG_195         
 Number of segments in area :              1
          number   segment
              1            957

 Dump area :   40 : MS_AFWG_106         
 Number of segments in area :              1
          number   segment
              1            965

 Dump area :   41 : MS_AFWG_128         
 Number of segments in area :              1
          number   segment
              1            980

 Dump area :   42 : MS_AFWG_188         
 Number of segments in area :              1
          number   segment
              1            995

 Dump area :   43 : MS_AFWG_283         
 Number of segments in area :              1
          number   segment
              1            997

 Dump area :   44 : MS_AFWG_287         
 Number of segments in area :              1
          number   segment
              1           1000

 Dump area :   45 : MS_AFWG_288         
 Number of segments in area :              1
          number   segment
              1           1036

 Dump area :   46 : MS_AFWG_127         
 Number of segments in area :              1
          number   segment
              1           1098

 Dump area :   47 : MS_AFWG_135         
 Number of segments in area :              1
          number   segment
              1           1128

 Dump area :   48 : MS_AFWG_230         
 Number of segments in area :              1
          number   segment
              1           1147

 Dump area :   49 : MS_AFWG_148         
 Number of segments in area :              1
          number   segment
              1           1179

 Dump area :   50 : MS_AFWG_140         
 Number of segments in area :              1
          number   segment
              1           1182

 Dump area :   51 : MS_AFWG_234         
 Number of segments in area :              1
          number   segment
              1           1199

 Dump area :   52 : MS_AFWG_133         
 Number of segments in area :              1
          number   segment
              1           1202

 Dump area :   53 : MS_AFWG_43          
 Number of segments in area :              1
          number   segment
              1           1227

 Dump area :   54 : MS_AFWG_40          
 Number of segments in area :              1
          number   segment
              1           1275

 Dump area :   55 : MS_AFWG_22          
 Number of segments in area :              1
          number   segment
              1           1329

 Dump area :   56 : MS_AFWG_237         
 Number of segments in area :              1
          number   segment
              1           1349

 Dump area :   57 : MS_AFWG_131         
 Number of segments in area :              1
          number   segment
              1           1384

 Dump area :   58 : MS_AFWG_298         
 Number of segments in area :              1
          number   segment
              1           1386

 Dump area :   59 : MS_AFWG_175         
 Number of segments in area :              1
          number   segment
              1           1418

 Dump area :   60 : MS_AFWG_55          
 Number of segments in area :              1
          number   segment
              1           1468

 Dump area :   61 : MS_AFWG_301         
 Number of segments in area :              1
          number   segment
              1           1483

 Dump area :   62 : MS_AFWG_110         
 Number of segments in area :              1
          number   segment
              1           1513

 Dump area :   63 : MS_AFWG_153         
 Number of segments in area :              1
          number   segment
              1           1531

 Dump area :   64 : MS_AFWG_213         
 Number of segments in area :              1
          number   segment
              1           1551

 Dump area :   65 : MS_AFWG_290         
 Number of segments in area :              1
          number   segment
              1           1610

 Dump area :   66 : MS_AFWG_227         
 Number of segments in area :              1
          number   segment
              1           1658

 Dump area :   67 : MS_AFWG_54          
 Number of segments in area :              1
          number   segment
              1           1693

 Dump area :   68 : MS_AFWG_312         
 Number of segments in area :              1
          number   segment
              1           1697

 Dump area :   69 : MS_AFWG_165         
 Number of segments in area :              1
          number   segment
              1           1777

 Dump area :   70 : MS_AFWG_214         
 Number of segments in area :              1
          number   segment
              1           1811

 Dump area :   71 : MS_AFWG_169         
 Number of segments in area :              1
          number   segment
              1           1827

 Dump area :   72 : MS_AFWG_269         
 Number of segments in area :              1
          number   segment
              1           1849

 Dump area :   73 : MS_AFWG_30          
 Number of segments in area :              1
          number   segment
              1           1868

 Dump area :   74 : MS_AFWG_154         
 Number of segments in area :              1
          number   segment
              1           1901

 Dump area :   75 : MS_AFWG_171         
 Number of segments in area :              1
          number   segment
              1           1942

 Dump area :   76 : MS_AFWG_168         
 Number of segments in area :              1
          number   segment
              1           1966

 Dump area :   77 : MS_AFWG_221         
 Number of segments in area :              1
          number   segment
              1           1968

 Dump area :   78 : MS_AFWG_41          
 Number of segments in area :              1
          number   segment
              1           2107

 Dump area :   79 : MS_AFWG_25          
 Number of segments in area :              1
          number   segment
              1           2182

 Dump area :   80 : MS_AFWG_24          
 Number of segments in area :              1
          number   segment
              1           2211

 Dump area :   81 : MS_AFWG_122         
 Number of segments in area :              1
          number   segment
              1           2229

 Dump area :   82 : MS_AFWG_123         
 Number of segments in area :              1
          number   segment
              1           2343

 Dump area :   83 : MS_AFWG_19          
 Number of segments in area :              1
          number   segment
              1           2370

 Dump area :   84 : MS_AFWG_160         
 Number of segments in area :              1
          number   segment
              1           2406

 Dump area :   85 : MS_AFWG_113         
 Number of segments in area :              1
          number   segment
              1           2414

 Dump area :   86 : MS_AFWG_176         
 Number of segments in area :              1
          number   segment
              1           2451

 Dump area :   87 : MS_AFWG_291         
 Number of segments in area :              1
          number   segment
              1           2454

 Dump area :   88 : MS_AFWG_82          
 Number of segments in area :              1
          number   segment
              1           2463

 Dump area :   89 : MS_AFWG_90          
 Number of segments in area :              1
          number   segment
              1           2472

 Dump area :   90 : MS_AFWG_46          
 Number of segments in area :              1
          number   segment
              1           2483

 Dump area :   91 : MS_AFWG_130         
 Number of segments in area :              1
          number   segment
              1           2557

 Dump area :   92 : MS_AFWG_215         
 Number of segments in area :              1
          number   segment
              1           2566

 Dump area :   93 : MS_AFWG_93          
 Number of segments in area :              1
          number   segment
              1           2581

 Dump area :   94 : MS_AFWG_116         
 Number of segments in area :              1
          number   segment
              1           2584

 Dump area :   95 : MS_AFWG_180         
 Number of segments in area :              1
          number   segment
              1           2643

 Dump area :   96 : MS_AFWG_161         
 Number of segments in area :              1
          number   segment
              1           2691

 Dump area :   97 : MS_AFWG_272         
 Number of segments in area :              1
          number   segment
              1           2713

 Dump area :   98 : MS_AFWG_162         
 Number of segments in area :              1
          number   segment
              1           2759

 Dump area :   99 : MS_AFWG_52          
 Number of segments in area :              1
          number   segment
              1           2767

 Dump area :  100 : MS_AFWG_61          
 Number of segments in area :              1
          number   segment
              1           2830

 Dump area :  101 : MS_AFWG_81          
 Number of segments in area :              1
          number   segment
              1           2833

 Dump area :  102 : MS_AFWG_76          
 Number of segments in area :              1
          number   segment
              1           2836

 Dump area :  103 : MS_AFWG_270         
 Number of segments in area :              1
          number   segment
              1           2839

 Dump area :  104 : MS_AFWG_114         
 Number of segments in area :              1
          number   segment
              1           2854

 Dump area :  105 : MS_AFWG_118         
 Number of segments in area :              1
          number   segment
              1           2921

 Dump area :  106 : MS_AFWG_92          
 Number of segments in area :              1
          number   segment
              1           3038

 Dump area :  107 : MS_AFWG_193         
 Number of segments in area :              1
          number   segment
              1           3044

 Dump area :  108 : MS_AFWG_202         
 Number of segments in area :              1
          number   segment
              1           3093

 Dump area :  109 : MS_AFWG_184         
 Number of segments in area :              1
          number   segment
              1           3112

 Dump area :  110 : MS_AFWG_271         
 Number of segments in area :              1
          number   segment
              1           3160

 Dump area :  111 : MS_AFWG_94          
 Number of segments in area :              1
          number   segment
              1           3184

 Dump area :  112 : MS_KGM-Q-29151      
 Number of segments in area :              1
          number   segment
              1           3202

 Dump area :  113 : MS_AFWG_246         
 Number of segments in area :              1
          number   segment
              1           3232

 Dump area :  114 : MS_AFWG_91          
 Number of segments in area :              1
          number   segment
              1           3257

 Dump area :  115 : MS_AFWG_302         
 Number of segments in area :              1
          number   segment
              1           3280

 Dump area :  116 : MS_AFWG_38          
 Number of segments in area :              1
          number   segment
              1           3326

 Dump area :  117 : MS_AFWG_37          
 Number of segments in area :              1
          number   segment
              1           3341

 Dump area :  118 : MS_AFWG_107         
 Number of segments in area :              1
          number   segment
              1           3400

 Dump area :  119 : MS_AFWG_245         
 Number of segments in area :              1
          number   segment
              1           3403

 Dump area :  120 : MS_AFWG_209         
 Number of segments in area :              1
          number   segment
              1           3405

 Dump area :  121 : MS_AFWG_276         
 Number of segments in area :              1
          number   segment
              1           3425

 Dump area :  122 : MS_AFWG_249         
 Number of segments in area :              1
          number   segment
              1           3446

 Dump area :  123 : MS_AFWG_248         
 Number of segments in area :              1
          number   segment
              1           3558

 Dump area :  124 : MS_AFWG_62          
 Number of segments in area :              1
          number   segment
              1           3631

 Dump area :  125 : MS_AFWG_253         
 Number of segments in area :              1
          number   segment
              1           3702

 Dump area :  126 : MS_AFWG_79          
 Number of segments in area :              1
          number   segment
              1           3746

 Dump area :  127 : MS_AFWG_274         
 Number of segments in area :              1
          number   segment
              1           3758

 Dump area :  128 : MS_AFWG_278         
 Number of segments in area :              1
          number   segment
              1           3782

 Dump area :  129 : MS_AFWG_279         
 Number of segments in area :              1
          number   segment
              1           3810

 Dump area :  130 : MS_AFWG_69          
 Number of segments in area :              1
          number   segment
              1           3813

 Dump area :  131 : MS_AFWG_258         
 Number of segments in area :              1
          number   segment
              1           3890

 Dump area :  132 : MS_AFWG_252         
 Number of segments in area :              1
          number   segment
              1           3895

 Dump area :  133 : MS_AFWG_295         
 Number of segments in area :              1
          number   segment
              1           3982

 Dump area :  134 : MS_AFWG_292         
 Number of segments in area :              1
          number   segment
              1           3985

 Dump area :  135 : MS_AFWG_192         
 Number of segments in area :              1
          number   segment
              1           4069

 Dump area :  136 : MS_AFWG_203         
 Number of segments in area :              1
          number   segment
              1           4071

 Dump area :  137 : MS_AFWG_306         
 Number of segments in area :              1
          number   segment
              1           4077

 Dump area :  138 : MS_AFWG_307         
 Number of segments in area :              1
          number   segment
              1           4080

 Dump area :  139 : MS_AFWG_21          
 Number of segments in area :              1
          number   segment
              1           4082

 Dump area :  140 : MS_AFWG_191         
 Number of segments in area :              1
          number   segment
              1           4085

 Dump area :  141 : MS_AFWG_36          
 Number of segments in area :              1
          number   segment
              1           4105

 Dump area :  142 : MS_AFWG_71          
 Number of segments in area :              1
          number   segment
              1           4133

 Dump area :  143 : MS_AFWG_310         
 Number of segments in area :              1
          number   segment
              1           4135

 Dump area :  144 : MS_AFWG_313         
 Number of segments in area :              1
          number   segment
              1           4138

 Dump area :  145 : MS_AFWG_260         
 Number of segments in area :              1
          number   segment
              1           4141

 Dump area :  146 : MS_AFWG_182         
 Number of segments in area :              1
          number   segment
              1           4204

 Dump area :  147 : MS_AFWG_178         
 Number of segments in area :              1
          number   segment
              1           4207

 Dump area :  148 : MS_AFWG_35          
 Number of segments in area :              1
          number   segment
              1           4210

 Dump area :  149 : MS_AFWG_239         
 Number of segments in area :              1
          number   segment
              1           4224

 Dump area :  150 : MS_AFWG_78          
 Number of segments in area :              1
          number   segment
              1           4226

 Dump area :  151 : MS_AFWG_11          
 Number of segments in area :              1
          number   segment
              1           4228

 Dump area :  152 : MS_AFWG_15          
 Number of segments in area :              1
          number   segment
              1           4231

 Dump area :  153 : MS_AFWG_2           
 Number of segments in area :              1
          number   segment
              1           4240

 Dump area :  154 : MS_AFWG_3           
 Number of segments in area :              1
          number   segment
              1           4243

 Dump area :  155 : MS_AFWG_5           
 Number of segments in area :              1
          number   segment
              1           4245

 Dump area :  156 : MS_AFWG_64          
 Number of segments in area :              1
          number   segment
              1           4248

 Dump area :  157 : MS_AFWG_10          
 Number of segments in area :              1
          number   segment
              1           4250

 Dump area :  158 : MS_AFWG_6           
 Number of segments in area :              1
          number   segment
              1           4253

 Dump area :  159 : MS_AFWG_104         
 Number of segments in area :              1
          number   segment
              1           4314

 Dump area :  160 : MS_AFWG_85          
 Number of segments in area :              1
          number   segment
              1           4317

 Dump area :  161 : MS_AFWG_187         
 Number of segments in area :              1
          number   segment
              1           4320

 Dump area :  162 : MS_AFWG_305         
 Number of segments in area :              1
          number   segment
              1           4323

 Dump area :  163 : MS_AFWG_159         
 Number of segments in area :              1
          number   segment
              1           4325

 Dump area :  164 : MS_AFWG_163         
 Number of segments in area :              1
          number   segment
              1           4328

 Dump area :  165 : MS_AFWG_164         
 Number of segments in area :              1
          number   segment
              1           4330

 Dump area :  166 : MS_AFWG_277         
 Number of segments in area :              1
          number   segment
              1           4333

 Dump area :  167 : MS_AFWG_65          
 Number of segments in area :              1
          number   segment
              1           4336

 Dump area :  168 : MS_AFWG_314         
 Number of segments in area :              1
          number   segment
              1           4338

 Dump area :  169 : MS_AFWG_8           
 Number of segments in area :              1
          number   segment
              1           4340

 Dump area :  170 : MS_AFWG_219         
 Number of segments in area :              1
          number   segment
              1           4343

 Dump area :  171 : MS_AFWG_222         
 Number of segments in area :              1
          number   segment
              1           4346

 Dump area :  172 : MS_AFWG_240         
 Number of segments in area :              1
          number   segment
              1           4371

 Dump area :  173 : MS_AFWG_39          
 Number of segments in area :              1
          number   segment
              1           4385

 Dump area :  174 : MS_AFWG_226         
 Number of segments in area :              1
          number   segment
              1           4387

 Dump area :  175 : MS_AFWG_228         
 Number of segments in area :              1
          number   segment
              1           4389

 Dump area :  176 : MS_AFWG_109         
 Number of segments in area :              1
          number   segment
              1           4392

 Dump area :  177 : MS_AFWG_210         
 Number of segments in area :              1
          number   segment
              1           4395

 Dump area :  178 : MS_AFWG_66          
 Number of segments in area :              1
          number   segment
              1           4397

 Dump area :  179 : MS_AFWG_296         
 Number of segments in area :              1
          number   segment
              1           4400

 Dump area :  180 : MS_AFWG_29          
 Number of segments in area :              1
          number   segment
              1           4403

 Dump area :  181 : MS_AFWG_4           
 Number of segments in area :              1
          number   segment
              1           4405

 Dump area :  182 : MS_AFWG_282         
 Number of segments in area :              1
          number   segment
              1           4407

 Dump area :  183 : MS_AFWG_206         
 Number of segments in area :              1
          number   segment
              1           4410

 Dump area :  184 : MS_AFWG_205         
 Number of segments in area :              1
          number   segment
              1           4412

 Dump area :  185 : MS_AFWG_243         
 Number of segments in area :              1
          number   segment
              1           4415

 Dump area :  186 : MS_AFWG_263         
 Number of segments in area :              1
          number   segment
              1           4417

 Dump area :  187 : MS_AFWG_254         
 Number of segments in area :              1
          number   segment
              1           4420

 Dump area :  188 : MS_AFWG_103         
 Number of segments in area :              1
          number   segment
              1           4423

 Dump area :  189 : MS_AFWG_201         
 Number of segments in area :              1
          number   segment
              1           4426

 Dump area :  190 : MS_AFWG_108         
 Number of segments in area :              1
          number   segment
              1           4428

 Dump area :  191 : MS_AFWG_238         
 Number of segments in area :              1
          number   segment
              1           4430

 Dump area :  192 : MS_AFWG_115         
 Number of segments in area :              1
          number   segment
              1           4432

 Dump area :  193 : MS_AFWG_242         
 Number of segments in area :              1
          number   segment
              1           4434

 Dump area :  194 : MS_AFWG_152         
 Number of segments in area :              1
          number   segment
              1           4437

 Dump area :  195 : MS_AFWG_158         
 Number of segments in area :              1
          number   segment
              1           4440

 Dump area :  196 : MS_AFWG_143         
 Number of segments in area :              1
          number   segment
              1           4443

 Dump area :  197 : MS_AFWG_121         
 Number of segments in area :              1
          number   segment
              1           4489

 Dump area :  198 : MS_AFWG_120         
 Number of segments in area :              1
          number   segment
              1           4492

 Dump area :  199 : MS_AFWG_172         
 Number of segments in area :              1
          number   segment
              1           4527

 Dump area :  200 : MS_AFWG_124         
 Number of segments in area :              1
          number   segment
              1           4541

 Dump area :  201 : MS_AFWG_119         
 Number of segments in area :              1
          number   segment
              1           4544

 Dump area :  202 : MS_AFWG_207         
 Number of segments in area :              1
          number   segment
              1           4559

 Dump area :  203 : MS_AFWG_311         
 Number of segments in area :              1
          number   segment
              1           4563

 Dump area :  204 : MS_AFWG_87          
 Number of segments in area :              1
          number   segment
              1           4581

 Dump area :  205 : MS_AFWG_80          
 Number of segments in area :              1
          number   segment
              1           4597

 Dump area :  206 : MS_AFWG_33          
 Number of segments in area :              1
          number   segment
              1           4602

 Dump area :  207 : MS_AFWG_74          
 Number of segments in area :              1
          number   segment
              1           4605

 Dump area :  208 : MS_AFWG_53          
 Number of segments in area :              1
          number   segment
              1           4608

 Dump area :  209 : MS_AFWG_44          
 Number of segments in area :              1
          number   segment
              1           4611

 Dump area :  210 : MS_AFWG_23          
 Number of segments in area :              1
          number   segment
              1           4614

 Dump area :  211 : MS_AFWG_27          
 Number of segments in area :              1
          number   segment
              1           4617

 Dump area :  212 : MS_AFWG_233         
 Number of segments in area :              1
          number   segment
              1           4619

 Dump area :  213 : MS_AFWG_117         
 Number of segments in area :              1
          number   segment
              1           4698

 Dump area :  214 : MS_AFWG_145         
 Number of segments in area :              1
          number   segment
              1           4700

 Dump area :  215 : MS_AFWG_224         
 Number of segments in area :              1
          number   segment
              1           4738

 Dump area :  216 : MS_AFWG_151         
 Number of segments in area :              1
          number   segment
              1           4769

 Dump area :  217 : MS_AFWG_150         
 Number of segments in area :              1
          number   segment
              1           4793

 Dump area :  218 : MS_AFWG_308         
 Number of segments in area :              1
          number   segment
              1           4828

 Dump area :  219 : MS_AFWG_262         
 Number of segments in area :              1
          number   segment
              1           4830

 Dump area :  220 : MS_AFWG_190         
 Number of segments in area :              1
          number   segment
              1           4892

 Dump area :  221 : MS_AFWG_289         
 Number of segments in area :              1
          number   segment
              1           4895

 Dump area :  222 : MS_AFWG_26          
 Number of segments in area :              1
          number   segment
              1           4898

 Dump area :  223 : MS_AFWG_50          
 Number of segments in area :              1
          number   segment
              1           4900

 Dump area :  224 : MS_AFWG_100         
 Number of segments in area :              1
          number   segment
              1           4917

 Dump area :  225 : MS_AFWG_102         
 Number of segments in area :              1
          number   segment
              1           4920

 Dump area :  226 : MS_AFWG_18          
 Number of segments in area :              1
          number   segment
              1           4923

 Dump area :  227 : MS_AFWG_257         
 Number of segments in area :              1
          number   segment
              1           4928

 Dump area :  228 : MS_AFWG_73          
 Number of segments in area :              1
          number   segment
              1           4931

 Dump area :  229 : MS_AFWG_101         
 Number of segments in area :              1
          number   segment
              1           5182

 Dump area :  230 : MS_AFWG_13          
 Number of segments in area :              1
          number   segment
              1           5185

 Dump area :  231 : MS_AFWG_14          
 Number of segments in area :              1
          number   segment
              1           5188

 Dump area :  232 : MS_AFWG_137         
 Number of segments in area :              1
          number   segment
              1           5222

 Dump area :  233 : MS_AFWG_216         
 Number of segments in area :              1
          number   segment
              1           5242

 Dump area :  234 : MS_AFWG_134         
 Number of segments in area :              1
          number   segment
              1           5251

 Dump area :  235 : MS_AFWG_285         
 Number of segments in area :              1
          number   segment
              1           5271

 Dump area :  236 : MS_AFWG_229         
 Number of segments in area :              1
          number   segment
              1           5273

 Dump area :  237 : MS_AFWG_16          
 Number of segments in area :              1
          number   segment
              1           5322

 Dump area :  238 : MS_AFWG_259         
 Number of segments in area :              1
          number   segment
              1           5325

 Dump area :  239 : MS_AFWG_247         
 Number of segments in area :              1
          number   segment
              1           5333

 Dump area :  240 : MS_AFWG_42          
 Number of segments in area :              1
          number   segment
              1           5342

 Dump area :  241 : MS_AFWG_139         
 Number of segments in area :              1
          number   segment
              1           5355

 Dump area :  242 : MS_AFWG_146         
 Number of segments in area :              1
          number   segment
              1           5446

 Dump area :  243 : MS_AFWG_17          
 Number of segments in area :              1
          number   segment
              1           5448

 Dump area :  244 : MS_AFWG_28          
 Number of segments in area :              1
          number   segment
              1           5450

 Dump area :  245 : MS_AFWG_58          
 Number of segments in area :              1
          number   segment
              1           5453

 Dump area :  246 : MS_AFWG_147         
 Number of segments in area :              1
          number   segment
              1           5461

 Dump area :  247 : MS_AFWG_34          
 Number of segments in area :              1
          number   segment
              1           5482

 Dump area :  248 : MS_AFWG_286         
 Number of segments in area :              1
          number   segment
              1           5493

 Dump area :  249 : MS_AFWG_138         
 Number of segments in area :              1
          number   segment
              1           5582

 Dump area :  250 : MS_AFWG_196         
 Number of segments in area :              1
          number   segment
              1           5590

 Dump area :  251 : MS_AFWG_51          
 Number of segments in area :              1
          number   segment
              1           5600

 Dump area :  252 : MS_AFWG_157         
 Number of segments in area :              1
          number   segment
              1           5609

 Dump area :  253 : MS_AFWG_99          
 Number of segments in area :              1
          number   segment
              1           5612

 Dump area :  254 : MS_AFWG_208         
 Number of segments in area :              1
          number   segment
              1           5615

 Dump area :  255 : MS_AFWG_218         
 Number of segments in area :              1
          number   segment
              1           5621

 Dump area :  256 : MS_AFWG_57          
 Number of segments in area :              1
          number   segment
              1           5624

 Dump area :  257 : MS_AFWG_88          
 Number of segments in area :              1
          number   segment
              1           5636

 Dump area :  258 : MS_AFWG_97          
 Number of segments in area :              1
          number   segment
              1           5651

 Dump area :  259 : MS_AFWG_86          
 Number of segments in area :              1
          number   segment
              1           5678

 Dump area :  260 : MS_AFWG_98          
 Number of segments in area :              1
          number   segment
              1           5680

 Dump area :  261 : MS_AFWG_96          
 Number of segments in area :              1
          number   segment
              1           5705

 Dump area :  262 : MS_AFWG_89          
 Number of segments in area :              1
          number   segment
              1           5708

 Dump area :  263 : MS_AFWG_199         
 Number of segments in area :              1
          number   segment
              1           5759

 Dump area :  264 : MS_AFWG_31          
 Number of segments in area :              1
          number   segment
              1           5762

 Dump area :  265 : MS_AFWG_268         
 Number of segments in area :              1
          number   segment
              1           5793

 Dump area :  266 : MS_AFWG_189         
 Number of segments in area :              1
          number   segment
              1           5795

 Dump area :  267 : MS_AFWG_267         
 Number of segments in area :              1
          number   segment
              1           5797

 Dump area :  268 : MS_AFWG_204         
 Number of segments in area :              1
          number   segment
              1           5812

 Dump area :  269 : MS_AFWG_149         
 Number of segments in area :              1
          number   segment
              1           5821

 Dump area :  270 : MS_AFWG_198         
 Number of segments in area :              1
          number   segment
              1           5839

 Dump area :  271 : MS_AFWG_105         
 Number of segments in area :              1
          number   segment
              1           5848

 Dump area :  272 : MS_AFWG_173         
 Number of segments in area :              1
          number   segment
              1           5858

 Dump area :  273 : MS_AFWG_47          
 Number of segments in area :              1
          number   segment
              1           5891

 Dump area :  274 : MS_AFWG_212         
 Number of segments in area :              1
          number   segment
              1           5893

 Dump area :  275 : MS_AFWG_225         
 Number of segments in area :              1
          number   segment
              1           5927

 Dump area :  276 : MS_AFWG_299         
 Number of segments in area :              1
          number   segment
              1           5998

 Dump area :  277 : MS_AFWG_186         
 Number of segments in area :              1
          number   segment
              1           6069

 Dump area :  278 : MS_AFWG_63          
 Number of segments in area :              1
          number   segment
              1           6102

 Dump area :  279 : MS_AFWG_155         
 Number of segments in area :              1
          number   segment
              1           6121

 Dump area :  280 : MS_AFWG_297         
 Number of segments in area :              1
          number   segment
              1           6132

 Dump area :  281 : MS_AFWG_156         
 Number of segments in area :              1
          number   segment
              1           6141

 Dump area :  282 : MS_AFWG_166         
 Number of segments in area :              1
          number   segment
              1           6158

 Dump area :  283 : MS_AFWG_136         
 Number of segments in area :              1
          number   segment
              1           6167

 Dump area :  284 : MS_AFWG_68          
 Number of segments in area :              1
          number   segment
              1           6285

 Dump area :  285 : MS_AFWG_200         
 Number of segments in area :              1
          number   segment
              1           6381

 Dump area :  286 : MS_AFWG_244         
 Number of segments in area :              1
          number   segment
              1           6404

 Dump area :  287 : MS_AFWG_303         
 Number of segments in area :              1
          number   segment
              1           6414

 Dump area :  288 : MS_AFWG_264         
 Number of segments in area :              1
          number   segment
              1           6473

 Dump area :  289 : MS_AFWG_304         
 Number of segments in area :              1
          number   segment
              1           6558

 Dump area :  290 : MS_AFWG_70          
 Number of segments in area :              1
          number   segment
              1           6560

 Dump area :  291 : MS_AFWG_241         
 Number of segments in area :              1
          number   segment
              1           6562

 Dump area :  292 : MS_AFWG_250         
 Number of segments in area :              1
          number   segment
              1           6570

 Dump area :  293 : MS_AFWG_251         
 Number of segments in area :              1
          number   segment
              1           6572

 Dump area :  294 : MS_AFWG_255         
 Number of segments in area :              1
          number   segment
              1           6586

 Dump area :  295 : MS_AFWG_256         
 Number of segments in area :              1
          number   segment
              1           6588

 Dump area :  296 : MS_AFWG_281         
 Number of segments in area :              1
          number   segment
              1           6590

 Dump area :  297 : MS_AFWG_261         
 Number of segments in area :              1
          number   segment
              1           6592

 Dump area :  298 : MS_AFWG_309         
 Number of segments in area :              1
          number   segment
              1           6594

 Dump area :  299 : MS_AFWG_236         
 Number of segments in area :              1
          number   segment
              1           6618

 Dump area :  300 : MS_AFWG_235         
 Number of segments in area :              1
          number   segment
              1           6620

 Dump area :  301 : MS_AFWG_83          
 Number of segments in area :              1
          number   segment
              1           6633

 Dump area :  302 : MS_AFWG_266         
 Number of segments in area :              1
          number   segment
              1           6637

 Dump area :  303 : MS_AFWG_179         
 Number of segments in area :              1
          number   segment
              1           6652

 Dump area :  304 : MS_AFWG_9           
 Number of segments in area :              1
          number   segment
              1           6658

 Dump area :  305 : MS_AFWG_293         
 Number of segments in area :              1
          number   segment
              1           6675

 Dump area :  306 : MS_AFWG_280         
 Number of segments in area :              1
          number   segment
              1           6678

 Dump area :  307 : MS_AFWG_273         
 Number of segments in area :              1
          number   segment
              1           6689

 Dump area :  308 : MS_AFWG_275         
 Number of segments in area :              1
          number   segment
              1           6691

 Dump area :  309 : MS_AFWG_67          
 Number of segments in area :              1
          number   segment
              1           6694

 Dump area :  310 : MS_AFWG_49          
 Number of segments in area :              1
          number   segment
              1           5367

 Dump area :  311 : SWT_Normal          
 Number of segments in area :           6765
          number   segment
              1              1
              2              2
              3              3
              4              4
              5              5
              6              6
              7              7
              8              8
              9              9
             10             10
             11             11
             12             12
             13             13
             14             14
             15             15
             16             16
             17             17
             18             18
             19             19
             20             20
             21             21
             22             22
             23             23
             24             24
             25             25
             26             26
             27             27
             28             28
             29             29
             30             30
             31             31
             32             32
             33             33
             34             34
             35             35
             36             36
             37             37
             38             38
             39             39
             40             40
             41             41
             42             42
             43             43
             44             44
             45             45
             46             46
             47             47
             48             48
             49             49
             50             50
             51             51
             52             52
             53             53
             54             54
             55             55
             56             56
             57             57
             58             58
             59             59
             60             60
             61             61
             62             62
             63             63
             64             64
             65             65
             66             66
             67             67
             68             68
             69             69
             70             70
             71             71
             72             72
             73             73
             74             74
             75             75
             76             76
             77             77
             78             78
             79             79
             80             80
             81             81
             82             82
             83             83
             84             84
             85             85
             86             86
             87             87
             88             88
             89             89
             90             90
             91             91
             92             92
             93             93
             94             94
             95             95
             96             96
             97             97
             98             98
             99             99
            100            100
            101            101
            102            102
            103            103
            104            104
            105            105
            106            106
            107            107
            108            108
            109            109
            110            110
            111            111
            112            112
            113            113
            114            114
            115            115
            116            116
            117            117
            118            118
            119            119
            120            120
            121            121
            122            122
            123            123
            124            124
            125            125
            126            126
            127            127
            128            128
            129            129
            130            130
            131            131
            132            132
            133            133
            134            134
            135            135
            136            136
            137            137
            138            138
            139            139
            140            140
            141            141
            142            142
            143            143
            144            144
            145            145
            146            146
            147            147
            148            148
            149            149
            150            150
            151            151
            152            152
            153            153
            154            154
            155            155
            156            156
            157            157
            158            158
            159            159
            160            160
            161            161
            162            162
            163            163
            164            164
            165            165
            166            166
            167            167
            168            168
            169            169
            170            170
            171            171
            172            172
            173            173
            174            174
            175            175
            176            176
            177            177
            178            178
            179            179
            180            180
            181            181
            182            182
            183            183
            184            184
            185            185
            186            186
            187            187
            188            188
            189            189
            190            190
            191            191
            192            192
            193            193
            194            194
            195            195
            196            196
            197            197
            198            198
            199            199
            200            200
            201            201
            202            202
            203            203
            204            204
            205            205
            206            206
            207            207
            208            208
            209            209
            210            210
            211            211
            212            212
            213            213
            214            214
            215            215
            216            216
            217            217
            218            218
            219            219
            220            220
            221            221
            222            222
            223            223
            224            224
            225            225
            226            226
            227            227
            228            228
            229            229
            230            230
            231            231
            232            232
            233            233
            234            234
            235            235
            236            236
            237            237
            238            238
            239            239
            240            240
            241            241
            242            242
            243            243
            244            244
            245            245
            246            246
            247            247
            248            248
            249            249
            250            250
            251            251
            252            252
            253            253
            254            254
            255            255
            256            256
            257            257
            258            258
            259            259
            260            260
            261            261
            262            262
            263            263
            264            264
            265            265
            266            266
            267            267
            268            268
            269            269
            270            270
            271            271
            272            272
            273            273
            274            274
            275            275
            276            276
            277            277
            278            278
            279            279
            280            280
            281            281
            282            282
            283            283
            284            284
            285            285
            286            286
            287            287
            288            288
            289            289
            290            290
            291            291
            292            292
            293            293
            294            294
            295            295
            296            296
            297            297
            298            298
            299            299
            300            300
            301            301
            302            302
            303            303
            304            304
            305            305
            306            306
            307            307
            308            308
            309            309
            310            310
            311            311
            312            312
            313            313
            314            314
            315            315
            316            316
            317            317
            318            318
            319            319
            320            320
            321            321
            322            322
            323            323
            324            324
            325            325
            326            326
            327            327
            328            328
            329            329
            330            330
            331            331
            332            332
            333            333
            334            334
            335            335
            336            336
            337            337
            338            338
            339            339
            340            340
            341            341
            342            342
            343            343
            344            344
            345            345
            346            346
            347            347
            348            348
            349            349
            350            350
            351            351
            352            352
            353            353
            354            354
            355            355
            356            356
            357            357
            358            358
            359            359
            360            360
            361            361
            362            362
            363            363
            364            364
            365            365
            366            366
            367            367
            368            368
            369            369
            370            370
            371            371
            372            372
            373            373
            374            374
            375            375
            376            376
            377            377
            378            378
            379            379
            380            380
            381            381
            382            382
            383            383
            384            384
            385            385
            386            386
            387            387
            388            388
            389            389
            390            390
            391            391
            392            392
            393            393
            394            394
            395            395
            396            396
            397            397
            398            398
            399            399
            400            400
            401            401
            402            402
            403            403
            404            404
            405            405
            406            406
            407            407
            408            408
            409            409
            410            410
            411            411
            412            412
            413            413
            414            414
            415            415
            416            416
            417            417
            418            418
            419            419
            420            420
            421            421
            422            422
            423            423
            424            424
            425            425
            426            426
            427            427
            428            428
            429            429
            430            430
            431            431
            432            432
            433            433
            434            434
            435            435
            436            436
            437            437
            438            438
            439            439
            440            440
            441            441
            442            442
            443            443
            444            444
            445            445
            446            446
            447            447
            448            448
            449            449
            450            450
            451            451
            452            452
            453            453
            454            454
            455            455
            456            456
            457            457
            458            458
            459            459
            460            460
            461            461
            462            462
            463            463
            464            464
            465            465
            466            466
            467            467
            468            468
            469            469
            470            470
            471            471
            472            472
            473            473
            474            474
            475            475
            476            476
            477            477
            478            478
            479            479
            480            480
            481            481
            482            482
            483            483
            484            484
            485            485
            486            486
            487            487
            488            488
            489            489
            490            490
            491            491
            492            492
            493            493
            494            494
            495            495
            496            496
            497            497
            498            498
            499            499
            500            500
            501            501
            502            502
            503            503
            504            504
            505            505
            506            506
            507            507
            508            508
            509            509
            510            510
            511            511
            512            512
            513            513
            514            514
            515            515
            516            516
            517            517
            518            518
            519            519
            520            520
            521            521
            522            522
            523            523
            524            524
            525            525
            526            526
            527            527
            528            528
            529            529
            530            530
            531            531
            532            532
            533            533
            534            534
            535            535
            536            536
            537            537
            538            538
            539            539
            540            540
            541            541
            542            542
            543            543
            544            544
            545            545
            546            546
            547            547
            548            548
            549            549
            550            550
            551            551
            552            552
            553            553
            554            554
            555            555
            556            556
            557            557
            558            558
            559            559
            560            560
            561            561
            562            562
            563            563
            564            564
            565            565
            566            566
            567            567
            568            568
            569            569
            570            570
            571            571
            572            572
            573            573
            574            574
            575            575
            576            576
            577            577
            578            578
            579            579
            580            580
            581            581
            582            582
            583            583
            584            584
            585            585
            586            586
            587            587
            588            588
            589            589
            590            590
            591            591
            592            592
            593            593
            594            594
            595            595
            596            596
            597            597
            598            598
            599            599
            600            600
            601            601
            602            602
            603            603
            604            604
            605            605
            606            606
            607            607
            608            608
            609            609
            610            610
            611            611
            612            612
            613            613
            614            614
            615            615
            616            616
            617            617
            618            618
            619            619
            620            620
            621            621
            622            622
            623            623
            624            624
            625            625
            626            626
            627            627
            628            628
            629            629
            630            630
            631            631
            632            632
            633            633
            634            634
            635            635
            636            636
            637            637
            638            638
            639            639
            640            640
            641            641
            642            642
            643            643
            644            644
            645            645
            646            646
            647            647
            648            648
            649            649
            650            650
            651            651
            652            652
            653            653
            654            654
            655            655
            656            656
            657            657
            658            658
            659            659
            660            660
            661            661
            662            662
            663            663
            664            664
            665            665
            666            666
            667            667
            668            668
            669            669
            670            670
            671            671
            672            672
            673            673
            674            674
            675            675
            676            676
            677            677
            678            678
            679            679
            680            680
            681            681
            682            682
            683            683
            684            684
            685            685
            686            686
            687            687
            688            688
            689            689
            690            690
            691            691
            692            692
            693            693
            694            694
            695            695
            696            696
            697            697
            698            698
            699            699
            700            700
            701            701
            702            702
            703            703
            704            704
            705            705
            706            706
            707            707
            708            708
            709            709
            710            710
            711            711
            712            712
            713            713
            714            714
            715            715
            716            716
            717            717
            718            718
            719            719
            720            720
            721            721
            722            722
            723            723
            724            724
            725            725
            726            726
            727            727
            728            728
            729            729
            730            730
            731            731
            732            732
            733            733
            734            734
            735            735
            736            736
            737            737
            738            738
            739            739
            740            740
            741            741
            742            742
            743            743
            744            744
            745            745
            746            746
            747            747
            748            748
            749            749
            750            750
            751            751
            752            752
            753            753
            754            754
            755            755
            756            756
            757            757
            758            758
            759            759
            760            760
            761            761
            762            762
            763            763
            764            764
            765            765
            766            766
            767            767
            768            768
            769            769
            770            770
            771            771
            772            772
            773            773
            774            774
            775            775
            776            776
            777            777
            778            778
            779            779
            780            780
            781            781
            782            782
            783            783
            784            784
            785            785
            786            786
            787            787
            788            788
            789            789
            790            790
            791            791
            792            792
            793            793
            794            794
            795            795
            796            796
            797            797
            798            798
            799            799
            800            800
            801            801
            802            802
            803            803
            804            804
            805            805
            806            806
            807            807
            808            808
            809            809
            810            810
            811            811
            812            812
            813            813
            814            814
            815            815
            816            816
            817            817
            818            818
            819            819
            820            820
            821            821
            822            822
            823            823
            824            824
            825            825
            826            826
            827            827
            828            828
            829            829
            830            830
            831            831
            832            832
            833            833
            834            834
            835            835
            836            836
            837            837
            838            838
            839            839
            840            840
            841            841
            842            842
            843            843
            844            844
            845            845
            846            846
            847            847
            848            848
            849            849
            850            850
            851            851
            852            852
            853            853
            854            854
            855            855
            856            856
            857            857
            858            858
            859            859
            860            860
            861            861
            862            862
            863            863
            864            864
            865            865
            866            866
            867            867
            868            868
            869            869
            870            870
            871            871
            872            872
            873            873
            874            874
            875            875
            876            876
            877            877
            878            878
            879            879
            880            880
            881            881
            882            882
            883            883
            884            884
            885            885
            886            886
            887            887
            888            888
            889            889
            890            890
            891            891
            892            892
            893            893
[...]
 1364               Boundary name    1364                   Lateral inflow      
 1365               Boundary name    1365                   Lateral inflow      
 1366               Boundary name    1366                   Lateral inflow      
 1367               Boundary name    1367                   Lateral inflow      
 1368               Boundary name    1368                   Lateral inflow      
 1369               Boundary name    1369                   Lateral inflow      
 1370               Boundary name    1370                   Lateral inflow      
 1371               Boundary name    1371                   Lateral inflow      
 1372               Boundary name    1372                   Lateral inflow      
 1373               Boundary name    1373                   Lateral inflow      
 1374               Boundary name    1374                   Lateral inflow      
 1375               Boundary name    1375                   Lateral inflow      
 1376               Boundary name    1376                   Lateral inflow      
 1377               Boundary name    1377                   Lateral inflow      
 1378               Boundary name    1378                   Lateral inflow      
 1379               Boundary name    1379                   Lateral inflow      
 1380               Boundary name    1380                   Lateral inflow      
 1381               Boundary name    1381                   Lateral inflow      
 1382               Boundary name    1382                   Lateral inflow      
 1383               Boundary name    1383                   Lateral inflow      
 1384               Boundary name    1384                   Lateral inflow      
 1385               Boundary name    1385                   Lateral inflow      
 1386               Boundary name    1386                   Lateral inflow      
 1387               Boundary name    1387                   Lateral inflow      
 1388               Boundary name    1388                   Lateral inflow      
 1389               Boundary name    1389                   Lateral inflow      
 1390               Boundary name    1390                   Lateral inflow      
 1391               Boundary name    1391                   Lateral inflow      
 1392               Boundary name    1392                   Lateral inflow      
 1393               Boundary name    1393                   Lateral inflow      
 1394               Boundary name    1394                   Lateral inflow      
 1395               Boundary name    1395                   Lateral inflow      
 1396               Boundary name    1396                   Lateral inflow      
 1397               Boundary name    1397                   Lateral inflow      
 1398               Boundary name    1398                   Lateral inflow      
 1399               Boundary name    1399                   Lateral inflow      
 1400               Boundary name    1400                   Lateral inflow      
 1401               Boundary name    1401                   Lateral inflow      
 1402               Boundary name    1402                   Lateral inflow      
 1403               Boundary name    1403                   Lateral inflow      
 1404               Boundary name    1404                   Lateral inflow      
 1405               Boundary name    1405                   Lateral inflow      
 1406               Boundary name    1406                   Lateral inflow      
 1407               Boundary name    1407                   Lateral inflow      
 1408               Boundary name    1408                   Lateral inflow      
 1409               Boundary name    1409                   Lateral inflow      
 1410               Boundary name    1410                   Lateral inflow      
 1411               Boundary name    1411                   Lateral inflow      
 1412               Boundary name    1412                   Lateral inflow      
 1413               Boundary name    1413                   Lateral inflow      
 1414               Boundary name    1414                   Lateral inflow      
 1415               Boundary name    1415                   Lateral inflow      
 1416               Boundary name    1416                   Lateral inflow      
 1417               Boundary name    1417                   Lateral inflow      
 1418               Boundary name    1418                   Lateral inflow      
 1419               Boundary name    1419                   Lateral inflow      
 1420               Boundary name    1420                   Lateral inflow      
 1421               Boundary name    1421                   Lateral inflow      
 1422               Boundary name    1422                   Lateral inflow      
 1423               Boundary name    1423                   Lateral inflow      
 1424               Boundary name    1424                   Lateral inflow      
 1425               Boundary name    1425                   Lateral inflow      
 1426               Boundary name    1426                   Lateral inflow      
 1427               Boundary name    1427                   Lateral inflow      
 1428               Boundary name    1428                   Lateral inflow      
 1429               Boundary name    1429                   Lateral inflow      
 1430               Boundary name    1430                   Lateral inflow      
 1431               Boundary name    1431                   Lateral inflow      
 1432               Boundary name    1432                   Lateral inflow      
 1433               Boundary name    1433                   Lateral inflow      
 1434               Boundary name    1434                   Lateral inflow      
 1435               Boundary name    1435                   Lateral inflow      
 1436               Boundary name    1436                   Lateral inflow      
 1437               Boundary name    1437                   Lateral inflow      
 1438               Boundary name    1438                   Lateral inflow      
 1439               Boundary name    1439                   Lateral inflow      
 1440               Boundary name    1440                   Lateral inflow      
 1441               Boundary name    1441                   Lateral inflow      
 1442               Boundary name    1442                   Lateral inflow      
 1443               Boundary name    1443                   Lateral inflow      
 1444               Boundary name    1444                   Lateral inflow      
 1445               Boundary name    1445                   Lateral inflow      
 1446               Boundary name    1446                   Lateral inflow      
 1447               Boundary name    1447                   Lateral inflow      
 1448               Boundary name    1448                   Lateral inflow      
 1449               Boundary name    1449                   Lateral inflow      
 1450               Boundary name    1450                   Lateral inflow      
 1451               Boundary name    1451                   Lateral inflow      
 1452               Boundary name    1452                   Lateral inflow      
 1453               Boundary name    1453                   Lateral inflow      
 1454               Boundary name    1454                   Lateral inflow      
 1455               Boundary name    1455                   Lateral inflow      
 1456               Boundary name    1456                   Lateral inflow      
 1457               Boundary name    1457                   Lateral inflow      
 1458               Boundary name    1458                   Lateral inflow      
 1459               Boundary name    1459                   Lateral inflow      
 1460               Boundary name    1460                   Lateral inflow      
 1461               Boundary name    1461                   Lateral inflow      
 1462               Boundary name    1462                   Lateral inflow      
 1463               Boundary name    1463                   Lateral inflow      
 1464               Boundary name    1464                   Lateral inflow      
 1465               Boundary name    1465                   Lateral inflow      
 1466               Boundary name    1466                   Lateral inflow      
 1467               Boundary name    1467                   Lateral inflow      
 1468               Boundary name    1468                   Lateral inflow      
 1469               Boundary name    1469                   Lateral inflow      
 1470               Boundary name    1470                   Lateral inflow      
 1471               Boundary name    1471                   Lateral inflow      
 1472               Boundary name    1472                   Lateral inflow      
 1473               Boundary name    1473                   Lateral inflow      
 1474               Boundary name    1474                   Lateral inflow      
 1475               Boundary name    1475                   Lateral inflow      
 1476               Boundary name    1476                   Lateral inflow      
 1477               Boundary name    1477                   Lateral inflow      
 1478               Boundary name    1478                   Lateral inflow      
 1479               Boundary name    1479                   Lateral inflow      
 1480               Boundary name    1480                   Lateral inflow      
 1481               Boundary name    1481                   Lateral inflow      
 1482               Boundary name    1482                   Lateral inflow      
 1483               Boundary name    1483                   Lateral inflow      
 1484               Boundary name    1484                   Lateral inflow      
 1485               Boundary name    1485                   Lateral inflow      
 1486               Boundary name    1486                   Lateral inflow      
 1487               Boundary name    1487                   Lateral inflow      
 1488               Boundary name    1488                   Lateral inflow      
 1489               Boundary name    1489                   Lateral inflow      
 1490               Boundary name    1490                   Lateral inflow      
 1491               Boundary name    1491                   Lateral inflow      
 1492               Boundary name    1492                   Lateral inflow      
 1493               Boundary name    1493                   Lateral inflow      
 1494               Boundary name    1494                   Lateral inflow      
 1495               Boundary name    1495                   Lateral inflow      
 1496               Boundary name    1496                   Lateral inflow      
 1497               Boundary name    1497                   Lateral inflow      
 1498               Boundary name    1498                   Lateral inflow      
 1499               Boundary name    1499                   Lateral inflow      
 1500               Boundary name    1500                   Lateral inflow      
 1501               Boundary name    1501                   Lateral inflow      
 1502               Boundary name    1502                   Lateral inflow      
 1503               Boundary name    1503                   Lateral inflow      
 1504               Boundary name    1504                   Lateral inflow      
 1505               Boundary name    1505                   Lateral inflow      
 1506               Boundary name    1506                   Lateral inflow      
 1507               Boundary name    1507                   Lateral inflow      
 1508               Boundary name    1508                   Lateral inflow      
 1509               Boundary name    1509                   Lateral inflow      
 1510               Boundary name    1510                   Lateral inflow      
 1511               Boundary name    1511                   Lateral inflow      
 1512               Boundary name    1512                   Lateral inflow      
 1513               Boundary name    1513                   Lateral inflow      
 1514               Boundary name    1514                   Lateral inflow      
 
 Number of different boundary types:    2
 Type:  Type-string
     1  Lateral inflow      
     2  Boundary Flow       
 

 Closing file: ..\work\Boundfra.id                                                           

 Continuing on file: delwaq.inp                                                                    

 Including file: ..\work\tatcherharlemen.wq                                                                                                                                                                                                                                                                                                                                                                                                                                                                                                                                                                                                                                                                                                                                                                                                                                                                                                                                                                                                              

 Time lag option:  0
 No time lags

 Boundary concentrations

 Closing file: ..\work\tatcherharlemen.wq                                                    

 Continuing on file: delwaq.inp                                                                    

 Including file: ..\work\Boundfra.dat                                                                                                                                                                                                                                                                                                                                                                                                                                                                                                                                                                                                                                                                                                                                                                                                                                                                                                                                                                                                                    

 BLOCKED per ITEM:
 Input BOUNDARIES nr:    1 is BOUNDARIES nr:    1 with type: Lateral inflow      

 CONCENTRATIONs within the item blocks:
 Input CONCENTR.  nr:    1 is CONCENTR.  nr:    1 with ID  : Check               
 Input CONCENTR.  nr:    2 is CONCENTR.  nr:    3 with ID  : Lateral inflow      

 DATA grouped in    1 blocks of    2 Substance 
 Constant values in this block.
 Substance      1           3
 boundary     Check       Lateral in  
         1    1.0000E+00  1.0000E+00

 ====> input item completed <==== 



 BLOCKED per ITEM:
 Input BOUNDARIES nr:    1 is BOUNDARIES nr:    2 with type: Boundary Flow       

 CONCENTRATIONs within the item blocks:
 Input CONCENTR.  nr:    1 is CONCENTR.  nr:    1 with ID  : Check               
 Input CONCENTR.  nr:    2 is CONCENTR.  nr:    4 with ID  : Boundary Flow       

 DATA grouped in    1 blocks of    2 Substance 
 Constant values in this block.
 Substance      1           4
 boundary     Check       Boundary F  
         2    1.0000E+00  1.0000E+00

 ====> input item completed <==== 



 Closing file: ..\work\Boundfra.dat                                                          

 Continuing on file: delwaq.inp                                                                    

 *********************************************************** B L O C K - 5 *****


 No waste loads 

 *********************************************************** B L O C K - 6 *****

  
 Input constant   nr:    1 is constant   nr:    1 with ID  : Iteration report    

 DATA grouped in    1 blocks of    1 values    
 Constant values in this block.
         1    0.0000E+00

 ====> input item completed <==== 



 Total number of constants        :    1

 Total number of parameters       :    0

 Total number of functions        :    0

 Total number of segment functions:    0

 *********************************************************** B L O C K - 7 *****


 Including file: \SOBRU213\AP.LIT\WORK\WQ.DAT                                                                                                                                                                                                                                                                                                                                                                                                                                                                                                                                                                                                                                                                                                                                                                                                                                                                                                                                                                                                            


 Option selected for initials    :   0

 Information from unformatted intermediate file.
 Filename is: ..\WORK\DUMMY.RES                                                                                                                                                                                                                                              

 Closing file: \SOBRU213\AP.LIT\WORK\WQ.DAT                                                  

 Continuing on file: delwaq.inp                                                                    

 *********************************************************** B L O C K - 8 *****



 Option selected for output specification :   1
 Information from the standard input file.

 Specification of monitor output

 Default output for this file

 Specification of grid dump output

 No output for this file

 Specification of history output

 All substances plus extra output variables

 (      1) number of output variables specified

 Number           Identification        Weight variable
       1           Volume                                    

 Specification of map output

 All substances plus extra output variables

 (      1) number of output variables specified

 Number           Identification 
       1           Volume              

 Binary history file switched on

 Binary map file switched on

 NEFIS history file switched off

 NEFIS map file switched off

 NO BALANCE output : balance option not active !
 
  Determining the place of the output variables
 
        Volume              ; Using DELWAQ VOLUME
        Volume              ; Using DELWAQ VOLUME

 *********************************************************** B L O C K - 9 *****


 Output operations
Number of periods defined:     0
 

 *********************************************************** B L O C K -10 *****



 Messages presented in this .lst file:

 Number of ERRORS during input :  0
 


 Messages presented including .lsp file:

 Number of ERRORS during input :  0
 total real    array space:     839117
 total integer array space:     172281
 total CHARACTER*20  space:       5044
 Execution stop : 2013/10/07 10:45:24 
