 my_rank =           0
 MAXIMUM NUMBER OF LINKS         :            2
 MAXIMUM NUMBER OF NODES         :            0
 RESOLUTION GRAPHICS SCREEN      :         1024         768
 RESOLUTION TEXT     SCREEN      :          128          48
 NUMBER OF COLOURS AVAILABLE     :          256
             0        100002 NOD(KMAX)
             6        700014 XK (KMAX), YK (KMAX), ZK (KMAX), KC (KMAX), NMK (KMAX), RNOD(KMAX)
             6         10000 XS(NSMAX),YS(NSMAX),ZS(NSMAX),IPSAM(NSMAX)
             6         50000 xlan(maxlan)
             7         50000 ylan(maxlan)
             7         50000 zlan(maxlan)
             7         25000 nclan(maxlan)
Opened Model definition file : har.mdu
 Node: har.mdu
    (unknown data type) -- ? --  T
    Node: model
       (unknown data type) -- ? --  T
       Node: program
          D-Flow FM -- STRING --  T
       Node: version
          1.1.62.000000 -- STRING --  T
       Node: autostart
          0 -- STRING --  T
    Node: geometry
       (unknown data type) -- ? --  T
       Node: netfile
          d3d_004_net.nc -- STRING --  T
       Node: bathymetryfile
           -- STRING --  T
       Node: waterlevinifile
           -- STRING --  T
       Node: landboundaryfile
           -- STRING --  T
       Node: thindamfile
           -- STRING --  T
       Node: thindykefile
           -- STRING --  T
       Node: proflocfile
           -- STRING --  T
       Node: profdeffile
           -- STRING --  T
       Node: manholefile
           -- STRING --  T
       Node: waterlevini
          0. -- STRING --  T
       Node: bedlevuni
          -5. -- STRING --  T
       Node: bedlevtype
          3 -- STRING --  T
       Node: partitionfile
           -- STRING --  T
       Node: anglat
          0. -- STRING --  T
       Node: conveyance2d
          3 -- STRING --  T
       Node: makeorthocenters
          0 -- STRING --  T
       Node: dcenterinside
          1. -- STRING --  T
       Node: kmx
          10 -- STRING --  T
    Node: numerics
       (unknown data type) -- ? --  T
       Node: cflmax
          0.7 -- STRING --  T
       Node: cflwavefrac
          0.1 -- STRING --  T
       Node: advectype
          3 -- STRING --  T
       Node: limtypmom
          4 -- STRING --  T
       Node: limtypsa
          4 -- STRING --  T
       Node: icgsolver
          1 -- STRING --  T
       Node: maxdegree
          6 -- STRING --  T
    Node: physics
       (unknown data type) -- ? --  T
       Node: uniffrictcoef
          2.3d-2 -- STRING --  T
       Node: uniffricttype
          1 -- STRING --  T
       Node: vicouv
          0. -- STRING --  T
       Node: dicouv
          0. -- STRING --  T
       Node: vicoww
          0. -- STRING --  T
       Node: dicoww
          0. -- STRING --  T
       Node: smagorinsky
          0. -- STRING --  T
       Node: elder
          0. -- STRING --  T
       Node: irov
          0 -- STRING --  T
       Node: wall_ks
          0. -- STRING --  T
       Node: tidalforcing
          1 -- STRING --  T
       Node: salinity
          1 -- STRING --  T
       Node: initialsalinity
          0. -- STRING --  T
    Node: wind
       (unknown data type) -- ? --  T
       Node: icdtyp
          2 -- STRING --  T
       Node: cdbreakpoints
          6.3d-4 7.23d-3 -- STRING --  T
       Node: windspeedbreakpoints
          0. 100. -- STRING --  T
    Node: time
       (unknown data type) -- ? --  T
       Node: refdate
          20080109 -- STRING --  T
       Node: tunit
          M -- STRING --  T
       Node: dtuser
          60. -- STRING --  T
       Node: dtmax
          60. -- STRING --  T
       Node: dtinit
          1. -- STRING --  T
       Node: autotimestep
          1 -- STRING --  T
       Node: tstart
          15120. -- STRING --  T
       Node: tstop
          35280. -- STRING --  T
    Node: restart
       (unknown data type) -- ? --  T
       Node: restartfile
           -- STRING --  T
       Node: restartdatetime
          20080109000000 -- STRING --  T
    Node: external forcing
       (unknown data type) -- ? --  T
       Node: extforcefile
          001.ext -- STRING --  T
    Node: output
       (unknown data type) -- ? --  T
       Node: obsfile
          har_fine_V3_obs.xyn -- STRING --  T
       Node: crsfile
          har_crs_V2.pli -- STRING --  T
       Node: hisfile
          001_his.nc -- STRING --  T
       Node: hisinterval
          60. -- STRING --  T
       Node: xlsinterval
          0. -- STRING --  T
       Node: flowgeomfile
           -- STRING --  T
       Node: mapfile
          001_map.nc -- STRING --  T
       Node: mapinterval
          600. -- STRING --  T
       Node: mapformat
          1 -- STRING --  T
       Node: rstinterval
          0. -- STRING --  T
       Node: waqfilebase
          har -- STRING --  T
       Node: waqinterval
          0. -- STRING --  T
       Node: statsinterval
          0. -- STRING --  T
       Node: snapshotdir
          figures -- STRING --  T
       Node: timingsinterval
          60. -- STRING --  T
       Node: outputdir
           -- STRING --  T
Opened 'd3d_004_net.nc' as #***.
Closed NetCDF file 'd3d_004_net.nc.
Opened file : har_fine_V3_obs.xyn
Closed file : har_fine_V3_obs.xyn
Opened file : har_crs_V2.pli
Closed file : har_crs_V2.pli
             8         42973 netcell(numpx1)
             8         56790 lnn(numl)
             9        113580 lne(2,numl)
             9         28142 xz(numc)
            10         28142 yz(numc)
            10         28142 xzw(numc)
            10         28142 yzw(numc)
            10         28142 ba(numc)
 Renumber flow nodes...
 Sumdiff:    21909687  Sumdiff renum:     17715975
 Bandwidth:       56207  Bandwidth renum:          311
Opened file : 001.ext
            11         56790 xe (nx)
            11         56790 ye (nx)
            12         56790 xyen(2, nx)
            16        511110 kce(nx), kez(nx), keu(nx), kes(nx), kesd(nx), ket(nx), ken(nx), keg(nx), ked(nx), kep(nx), itpez(nx), itpeu(nx)
looking for keyword: QUANTITY
looking for keyword: FILENAME
looking for keyword: FILETYPE
looking for keyword: METHOD
looking for keyword: OPERAND
Opened file : 071_01.pli
Closed file : 071_01.pli
 boundary: 071_01.pli          95
waterlevelbnd 071_01.pli      95 nr of open bndcells
looking for keyword: QUANTITY
looking for keyword: FILENAME
looking for keyword: FILETYPE
looking for keyword: METHOD
looking for keyword: OPERAND
Opened file : 071_02.pli
Closed file : 071_02.pli
 boundary: 071_02.pli         210
waterlevelbnd 071_02.pli     210 nr of open bndcells
looking for keyword: QUANTITY
looking for keyword: FILENAME
looking for keyword: FILETYPE
looking for keyword: METHOD
looking for keyword: OPERAND
Opened file : 071_03.pli
Closed file : 071_03.pli
 boundary: 071_03.pli         154
waterlevelbnd 071_03.pli     154 nr of open bndcells
looking for keyword: QUANTITY
looking for keyword: FILENAME
looking for keyword: FILETYPE
looking for keyword: METHOD
looking for keyword: OPERAND
Opened file : 071_01_sal.pli
Closed file : 071_01_sal.pli
 boundary: 071_01_sal.pli          95
salinitybnd071_01_sal.pli      95nr of salinity bndcells
looking for keyword: QUANTITY
looking for keyword: FILENAME
looking for keyword: FILETYPE
looking for keyword: METHOD
looking for keyword: OPERAND
Opened file : 071_02_sal.pli
Closed file : 071_02_sal.pli
 boundary: 071_02_sal.pli         210
salinitybnd071_02_sal.pli     210nr of salinity bndcells
looking for keyword: QUANTITY
looking for keyword: FILENAME
looking for keyword: FILETYPE
looking for keyword: METHOD
looking for keyword: OPERAND
Opened file : 071_03_sal.pli
Closed file : 071_03_sal.pli
 boundary: 071_03_sal.pli         154
salinitybnd071_03_sal.pli     154nr of salinity bndcells
looking for keyword: QUANTITY
looking for keyword: FILENAME
looking for keyword: FILETYPE
looking for keyword: METHOD
looking for keyword: OPERAND
Opened file : sluice.pli
Closed file : sluice.pli
 boundary: sluice.pli           1
dischargebndsluice.pli       1nr of open bndcells
looking for keyword: QUANTITY
looking for keyword: FILENAME
looking for keyword: FILETYPE
looking for keyword: METHOD
looking for keyword: OPERAND
Opened file : sluice_sal.pli
Closed file : sluice_sal.pli
 boundary: sluice_sal.pli           1
salinitybndsluice_sal.pli       1nr of salinity bndcells
looking for keyword: QUANTITY
looking for keyword: FILENAME
looking for keyword: FILETYPE
looking for keyword: METHOD
looking for keyword: OPERAND
Found optional keyword VALUE
looking for keyword: QUANTITY
keyword QUANTITY NOT found!
            18        228816 nd(ndx), bl(ndx), bai(ndx), kcs(ndx), aif(ndx)
            21        111696 ln   (2,lnx)
            22        111696 lncn (2,lnx)
            23        111696 bob  (2,lnx)
            23         55848 dx   (  lnx)
            24         55848 dxi  (  lnx)
            24         55848 wu   (  lnx)
            25         55848 wui  (  lnx)
            25         55848 kcu  (  lnx)
            26         55848 csu  (  lnx)
            26         55848 snu  (  lnx)
            26         55848 acl  (  lnx)
            27         55848 acn  (2,lnx)
            27         55848 iadv   (lnx)
            28         55848 ibot   (lnx)
            29        167544 xu(lnx), yu(lnx) , blu(lnx)
            30         56790 ln2lne (nex)
            30         56790 lne2ln (nex)
            31         28649  cn (numk)
            31         28649 ucnx(numk)
            32         28649 ucny(numk)
            32         28649 ban (numk)
cutcell_list; nr of *.cut files found =              0             4
            34        223392 wcxyl(4,lnx)
            34         57204 wcxy (2,ndx)
            35        111696 wcL  (2,Lnx)
            35         28602 wc     (ndx)
            37        223392 wcnxyl(4,lnx)
            38         85947 wcnxy (3,numk)
cutcell_list; nr of *.cut files found =              0             5
            39         15072 walls(17,nw)
            40        112178 banf(mxban)
            41        112178 nban(2,mxban)
            41        112178 rr(mxban), nr(mxban)
            42        112178 banh (mxban)
            43        112178 nbanh(2,mxban)
            44         57204 s0  (ndx) , s1  (ndx)
            44         57204 a0  (ndx) , a1  (ndx)
            45         57204 hs  (ndx) , s00 (ndx)
            45         28602 cfs (ndx)
            45         28602 kbot (ndx)
            45         28602 ktop (ndx)
            46         28602 kmxn (ndx)
            46         55848 Lbot (Lnx)
            46         55848 Ltop (Lnx)
            47         55848 kmxL (Lnx)
            47         28648 kbotc(numkmin: numkmax)
            47         28648 kmxc (numkmin: numkmax)
            48         28602 asig  (ndx)
            48         55848 ustb  (lnx)
            48         55848 ustw  (lnx)
            54        686448 ucx (ndkx) , ucy (ndkx)
            59        686448 uqcx(ndkx) , uqcy(ndkx)
            65        686448 ucxq(ndkx) , ucyq(ndkx)
            70        686448 qin (ndkx) , vih (ndkx)
            76        686448 dvxc(ndkx) , dvyc(ndkx)
            79        343224 cfli(ndkx)
            81        343224 squ (ndkx)
            84        343224 sqi (ndkx)
            84         28602 sq  (ndkx)
            87        343224 vol0(ndkx)
            90        343224 vol1(ndkx)
            90         28602 volerror(ndkx)
            90         28602 tidep (ndx)
            93        343224 zws (ndkx)
            96        343224 zws0(ndkx)
            99        343224 ww1 (ndkx)
           101        343224 qw  (ndkx)
           104        343224 rho (ndkx)
           109        670176 turkin0  (Lnkx)
           115        670176 turkin1  (Lnkx)
           120        670176 tureps0  (Lnkx)
           126        670176 tureps1  (Lnkx)
           128        343224 tkepro   (ndkx)
           131        343224 tkedis   (ndkx)
           136        670176 vicwwu   (Lnkx)
           139        343224 vicwws   (ndkx)
           142        343224 turkinws (ndkx)
           145        343224 turepsws (ndkx)
           147        343224 turkinwsu(Lnkx)
           150        343224 turepswsu(Lnkx)
           151         55848 cfu  (lnx)
           151         28602 frcu (lnx)
           151         28602 ifrcutp(lnx)
           151         55848 wsu  (lnx)
           157        670176 u0   (lnkx)
           162        670176 u1   (lnkx)
           168        670176 q1   (lnkx)
           173        670176 qa   (lnkx)
           178        670176 v    (lnkx)
           184        670176 ucxu (lnkx)
           189        670176 ucyu (lnkx)
           194        670176 hu   (lnkx)
           200        670176 huvli(lnkx)
           205        670176 au   (lnkx)
           210        670176 viu  (lnkx)
           216        670176 cflj (lnkx)
           221        670176 tetaj(lnkx)
           227        670176 suu  (lnkx)
           232        670176 advi (lnkx)
           237        670176 adve (lnkx)
           243        670176 rhou (lnkx)
           248        670176 plotlin(max(lnkx,ndkx))
           248         28602 numlimdt(ndx)
           248         28602 bb   (ndx )
           249         28602 dd   (ndx )
           249         28602 fu   (lnkx)
           249         28602 ru   (lnkx)
           250         55848 teta (lnx)
           255        686448 sa0 (ndkx) , sa1 (ndkx)
           258        343224 supq(ndkx)
           258          4590 xbndz(nbndz), ybndz(nbndz), xy2bndz(2,nbndz), zbndz(nbndz), kbndz(n4,nbndz), kdz(nbndz)
Enabled salinity while reading external forcings.
           258          4140 xbnds(nbnds), ybnds(nbnds), xy2bnds(2,nbnds), zbnds(nbnds), kbnds(4,nbnds), kds(nbnds)
looking for keyword: QUANTITY
looking for keyword: FILENAME
looking for keyword: FILETYPE
looking for keyword: METHOD
looking for keyword: OPERAND
External Forcing or Initialising 'waterlevelbnd' from file '071_01.pli'.
Opened file : 071_01.pli
Closed file : 071_01.pli
Opened file : 071_01_0001.tim
Opened file : 071_01_0002.tim
Opened file : 071_01_0003.tim
Opened file : 071_01_0004.tim
Opened file : 071_01_0005.tim
Opened file : 071_01_0006.tim
Opened file : 071_01_0007.tim
Opened file : 071_01_0008.tim
Opened file : 071_01_0009.tim
Opened file : 071_01_0010.tim
Opened file : 071_01_0011.tim
Opened file : 071_01_0012.tim
Opened file : 071_01_0013.tim
Opened file : 071_01_0014.tim
Opened file : 071_01_0015.tim
Opened file : 071_01_0016.tim
Opened file : 071_01_0017.tim
Opened file : 071_01_0018.tim
Opened file : 071_01_0019.tim
Opened file : 071_01_0020.tim
looking for keyword: QUANTITY
looking for keyword: FILENAME
looking for keyword: FILETYPE
looking for keyword: METHOD
looking for keyword: OPERAND
External Forcing or Initialising 'waterlevelbnd' from file '071_02.pli'.
Opened file : 071_02.pli
Closed file : 071_02.pli
Opened file : 071_02_0001.tim
Opened file : 071_02_0002.tim
Opened file : 071_02_0003.tim
Opened file : 071_02_0004.tim
Opened file : 071_02_0005.tim
Opened file : 071_02_0006.tim
Opened file : 071_02_0007.tim
Opened file : 071_02_0008.tim
Opened file : 071_02_0009.tim
Opened file : 071_02_0010.tim
Opened file : 071_02_0011.tim
Opened file : 071_02_0012.tim
Opened file : 071_02_0013.tim
Opened file : 071_02_0014.tim
Opened file : 071_02_0015.tim
Opened file : 071_02_0016.tim
Opened file : 071_02_0017.tim
Opened file : 071_02_0018.tim
Opened file : 071_02_0019.tim
Opened file : 071_02_0020.tim
Opened file : 071_02_0021.tim
Opened file : 071_02_0022.tim
Opened file : 071_02_0023.tim
Opened file : 071_02_0024.tim
Opened file : 071_02_0025.tim
Opened file : 071_02_0026.tim
Opened file : 071_02_0027.tim
Opened file : 071_02_0028.tim
Opened file : 071_02_0029.tim
Opened file : 071_02_0030.tim
Opened file : 071_02_0031.tim
Opened file : 071_02_0032.tim
Opened file : 071_02_0033.tim
Opened file : 071_02_0034.tim
Opened file : 071_02_0035.tim
Opened file : 071_02_0036.tim
Opened file : 071_02_0037.tim
Opened file : 071_02_0038.tim
Opened file : 071_02_0039.tim
Opened file : 071_02_0040.tim
Opened file : 071_02_0041.tim
Opened file : 071_02_0042.tim
Opened file : 071_02_0043.tim
Opened file : 071_02_0044.tim
Opened file : 071_02_0045.tim
Opened file : 071_02_0046.tim
Opened file : 071_02_0047.tim
Opened file : 071_02_0048.tim
looking for keyword: QUANTITY
looking for keyword: FILENAME
looking for keyword: FILETYPE
looking for keyword: METHOD
looking for keyword: OPERAND
External Forcing or Initialising 'waterlevelbnd' from file '071_03.pli'.
Opened file : 071_03.pli
Closed file : 071_03.pli
Opened file : 071_03_0001.tim
Opened file : 071_03_0002.tim
Opened file : 071_03_0003.tim
Opened file : 071_03_0004.tim
Opened file : 071_03_0005.tim
Opened file : 071_03_0006.tim
Opened file : 071_03_0007.tim
Opened file : 071_03_0008.tim
Opened file : 071_03_0009.tim
Opened file : 071_03_0010.tim
Opened file : 071_03_0011.tim
Opened file : 071_03_0012.tim
Opened file : 071_03_0013.tim
Opened file : 071_03_0014.tim
Opened file : 071_03_0015.tim
Opened file : 071_03_0016.tim
Opened file : 071_03_0017.tim
Opened file : 071_03_0018.tim
Opened file : 071_03_0019.tim
Opened file : 071_03_0020.tim
Opened file : 071_03_0021.tim
Opened file : 071_03_0022.tim
looking for keyword: QUANTITY
looking for keyword: FILENAME
looking for keyword: FILETYPE
looking for keyword: METHOD
looking for keyword: OPERAND
External Forcing or Initialising 'salinitybnd' from file '071_01_sal.pli'.
Opened file : 071_01_sal.pli
Closed file : 071_01_sal.pli
Opened file : 071_01_sal_0001.tim
Opened file : 071_01_sal_0002.tim
Opened file : 071_01_sal_0003.tim
Opened file : 071_01_sal_0004.tim
Opened file : 071_01_sal_0005.tim
Opened file : 071_01_sal_0006.tim
Opened file : 071_01_sal_0007.tim
Opened file : 071_01_sal_0008.tim
Opened file : 071_01_sal_0009.tim
Opened file : 071_01_sal_0010.tim
Opened file : 071_01_sal_0011.tim
Opened file : 071_01_sal_0012.tim
Opened file : 071_01_sal_0013.tim
Opened file : 071_01_sal_0014.tim
Opened file : 071_01_sal_0015.tim
Opened file : 071_01_sal_0016.tim
Opened file : 071_01_sal_0017.tim
Opened file : 071_01_sal_0018.tim
Opened file : 071_01_sal_0019.tim
Opened file : 071_01_sal_0020.tim
looking for keyword: QUANTITY
looking for keyword: FILENAME
looking for keyword: FILETYPE
looking for keyword: METHOD
looking for keyword: OPERAND
External Forcing or Initialising 'salinitybnd' from file '071_02_sal.pli'.
Opened file : 071_02_sal.pli
Closed file : 071_02_sal.pli
Opened file : 071_02_sal_0001.tim
Opened file : 071_02_sal_0002.tim
Opened file : 071_02_sal_0003.tim
Opened file : 071_02_sal_0004.tim
Opened file : 071_02_sal_0005.tim
Opened file : 071_02_sal_0006.tim
Opened file : 071_02_sal_0007.tim
Opened file : 071_02_sal_0008.tim
Opened file : 071_02_sal_0009.tim
Opened file : 071_02_sal_0010.tim
Opened file : 071_02_sal_0011.tim
Opened file : 071_02_sal_0012.tim
Opened file : 071_02_sal_0013.tim
Opened file : 071_02_sal_0014.tim
Opened file : 071_02_sal_0015.tim
Opened file : 071_02_sal_0016.tim
Opened file : 071_02_sal_0017.tim
Opened file : 071_02_sal_0018.tim
Opened file : 071_02_sal_0019.tim
Opened file : 071_02_sal_0020.tim
Opened file : 071_02_sal_0021.tim
Opened file : 071_02_sal_0022.tim
Opened file : 071_02_sal_0023.tim
Opened file : 071_02_sal_0024.tim
Opened file : 071_02_sal_0025.tim
Opened file : 071_02_sal_0026.tim
Opened file : 071_02_sal_0027.tim
Opened file : 071_02_sal_0028.tim
Opened file : 071_02_sal_0029.tim
Opened file : 071_02_sal_0030.tim
Opened file : 071_02_sal_0031.tim
Opened file : 071_02_sal_0032.tim
Opened file : 071_02_sal_0033.tim
Opened file : 071_02_sal_0034.tim
Opened file : 071_02_sal_0035.tim
Opened file : 071_02_sal_0036.tim
Opened file : 071_02_sal_0037.tim
Opened file : 071_02_sal_0038.tim
Opened file : 071_02_sal_0039.tim
Opened file : 071_02_sal_0040.tim
Opened file : 071_02_sal_0041.tim
Opened file : 071_02_sal_0042.tim
Opened file : 071_02_sal_0043.tim
Opened file : 071_02_sal_0044.tim
Opened file : 071_02_sal_0045.tim
Opened file : 071_02_sal_0046.tim
Opened file : 071_02_sal_0047.tim
Opened file : 071_02_sal_0048.tim
looking for keyword: QUANTITY
looking for keyword: FILENAME
looking for keyword: FILETYPE
looking for keyword: METHOD
looking for keyword: OPERAND
External Forcing or Initialising 'salinitybnd' from file '071_03_sal.pli'.
Opened file : 071_03_sal.pli
Closed file : 071_03_sal.pli
Opened file : 071_03_sal_0001.tim
Opened file : 071_03_sal_0002.tim
Opened file : 071_03_sal_0003.tim
Opened file : 071_03_sal_0004.tim
Opened file : 071_03_sal_0005.tim
Opened file : 071_03_sal_0006.tim
Opened file : 071_03_sal_0007.tim
Opened file : 071_03_sal_0008.tim
Opened file : 071_03_sal_0009.tim
Opened file : 071_03_sal_0010.tim
Opened file : 071_03_sal_0011.tim
Opened file : 071_03_sal_0012.tim
Opened file : 071_03_sal_0013.tim
Opened file : 071_03_sal_0014.tim
Opened file : 071_03_sal_0015.tim
Opened file : 071_03_sal_0016.tim
Opened file : 071_03_sal_0017.tim
Opened file : 071_03_sal_0018.tim
Opened file : 071_03_sal_0019.tim
Opened file : 071_03_sal_0020.tim
Opened file : 071_03_sal_0021.tim
Opened file : 071_03_sal_0022.tim
looking for keyword: QUANTITY
looking for keyword: FILENAME
looking for keyword: FILETYPE
looking for keyword: METHOD
looking for keyword: OPERAND
External Forcing or Initialising 'dischargebnd' from file 'sluice.pli'.
Opened file : sluice.pli
Closed file : sluice.pli
Opened file : sluice_0001.tim
looking for keyword: QUANTITY
looking for keyword: FILENAME
looking for keyword: FILETYPE
looking for keyword: METHOD
looking for keyword: OPERAND
External Forcing or Initialising 'salinitybnd' from file 'sluice_sal.pli'.
Opened file : sluice_sal.pli
Closed file : sluice_sal.pli
Opened file : sluice_sal_0001.tim
looking for keyword: QUANTITY
looking for keyword: FILENAME
looking for keyword: FILETYPE
looking for keyword: METHOD
looking for keyword: OPERAND
Found optional keyword VALUE
External Forcing or Initialising 'initialsalinity' from file 'network_bounds_d3d.pol'.
           258         28602 zh(nx)
Opened file : network_bounds_d3d.pol
Closed file : network_bounds_d3d.pol
looking for keyword: QUANTITY
keyword QUANTITY NOT found!
External Forcing or Initialising 'initialsalinity' from file 'network_bounds_d3d.pol'.
Closed file : 001.ext
           258         28602 ij(nodtot)
           259         28602 nodbr2(nodtot)
           259         28602 nbrstk(nodtot)
           259         28602 nodstk(nodtot)
           259         28602 noel(nodtot)
           259         28602 noel0(nodtot)
           260         28602 ia(nodtot)
           260         28602 row(nodtot)
           260         55848 lv2(lintot)
           264        109656 ccr(0:ijstck)
           265        109656 bbl(0:ijstck)
           265         57204 bbr(nodtot), ddr(nodtot)
           266        143010 d0(nodtot), zkr(nodtot),pk(0:nodtot), apk(nodtot), rk(nodtot)
nogauss , nocg :          13703         14899
           267         55848 klnup(6,lnx)
           267         55848 slnup(6,lnx)
Modelinit finished   at: 00:**:00, **-00-****
* Active Model definition:
**
Opened display settings file : har.cfg
Opened NetCDF file 'DFM_OUTPUT_har/001_his.nc' as #***.
Opened NetCDF file 'DFM_OUTPUT_har/001_map.nc' as #***.
 -5.716304912167488E-004
 -1.225159148818050E-003
 -1.824830192215946E-003
 -2.468961679463300E-003
 -3.033663457865526E-003
 -3.523477320604949E-003
 -3.942629989478795E-003
 -4.294917526642235E-003
 -4.583797543562317E-003
 -4.812664608239845E-003
 -4.984920733107348E-003
 -5.104022175826984E-003
 -5.173353368142752E-003
 -5.196291739385175E-003
 -5.176337347257865E-003
 -5.117090114102166E-003
 -5.022222465336980E-003
 -4.895375415829375E-003
 -4.740101421865630E-003
 -4.559934274330023E-003
 -4.358412462045085E-003
 -4.139030493304253E-003
 -3.905060704976884E-003
 -3.639115802256098E-003
 -3.366509907264570E-003
 -3.090110490344691E-003
 -2.928322907616588E-003
 -2.739388798934153E-003
 -2.531003124101744E-003
 -2.309858101356023E-003
 -2.081609234764695E-003
 -1.850951756084421E-003
 -1.621629895182474E-003
 -1.396601546451228E-003
 -1.178269216883007E-003
 -9.685471439789805E-004
 -7.689203634397742E-004
 -5.803448072690264E-004
 -4.033573723853262E-004
 -2.382661508936926E-004
 -2.486560697778783E-004
 -7.530190788396076E-004
 -1.218444483239300E-003
 -1.644088414473354E-003
 -2.029374590535904E-003
 -2.373729212146017E-003
 -2.676688237198077E-003
 -2.938210026280725E-003
 -3.319354950997318E-003
 -3.620386413774872E-003
 -3.847390832213189E-003
 -4.010396870174035E-003
 -4.117840304401236E-003
 -4.172633602867474E-003
 -4.182850441353277E-003
 -4.155625060699869E-003
 -4.091950136308599E-003
 -3.998451746560000E-003
 -3.880981596829669E-003
 -3.739331026015319E-003
 -3.579490833954107E-003
 -3.406678476136920E-003
 -3.219963433308784E-003
 -3.024706501119575E-003
 -2.825465937856651E-003
 -2.620659304448320E-003
 -2.415051356951309E-003
 -2.187209684086835E-003
 -1.962626061273756E-003
 -1.745157304753039E-003
 -1.537439437911894E-003
 -1.336203663403615E-003
 -1.144786227156044E-003
 -1.145707975443602E-003
 -1.109524138004590E-003
 -1.048122650413540E-003
 -9.655374359900411E-004
 -8.707066397207895E-004
 -7.687141222179946E-004
 -6.607638150641859E-004
 -5.512773270479295E-004
 -4.416262901179396E-004
 -3.324174638007618E-004
 -2.240633327181776E-004
 -1.165587919412494E-004
   38.5502356622900     
   56.2069896507055     
   48.3244779626917     
   37.6384604731990     
   36.7155933509196     
   36.3323687526125     
   33.6289415787115     
 -8.809928398812844E-002
   56.2397874678391     
   117.633635209595     
  -48.4614103857180     
   96.5179627685855     
  -14.4526942134918     
   47.6086034324207     
   43.7222033523851     
   50.0003649074476     
  -1.33587374388994     
   35.6945989870115     
  -32.4015420970560     
   81.1612753254612     
   50.9370668791038     
  -8.97685284098160     
  -17.1666987276956     
   67.0620051115070     
   46.8794598606144     
  -6.61256157238987     
   66.1436618511693     
   37.0121376065934     
   48.8068894883739     
   37.2558879969546     
   52.8472149847823     
   49.0921095746288     
   38.9726580374369     
   35.7465662842099     
   33.6713694593259     
   35.5561828729375     
   34.6262432420703     
   33.8846375551752     
  -4.40969089930700     
   68.7677871560281     
   193.156523510500     
  -166.908337488903     
   192.918736658270     
   335.713075465423     
   35.5948259115642     
  -65.7105797301171     
   115.807488232204     
   37.4015206835553     
  -1.48671452991680     
   58.3801788260914     
   139.158872611332     
  -51.2777654929055     
   75.2886285941128     
   51.5939188514494     
   35.1027208788915     
   45.9487262214842     
   35.5382817243559     
  -3.86571841444650     
   58.0328961015808     
   39.5082806988324     
   37.5316691116256     
 -0.198487858955735     
   45.0631775075822     
   34.3130189379102     
   33.8657107025296     
  -1.93319743331124     
   48.2151762639205     
   35.1072175280603     
   34.5718785044463     
  -5.67888175982918     
  -16.1917615810668     
  -3.02867326492243     
  -5.91109087292761     
  -3.18893512678099     
   38.7336458390256     
   41.9381901615918     
  -4.44345634900216     
  -7.25557160528779     
   72.0058724395154     
   57.3787866534622     
   33.2040930588159     
  -6.18540454416346     
   34.3252871175522     
   33.1781162148864     
   33.8234624696516     
 -0.855164975565929     
   36.9940362148646     
   35.0408903747194     
 -0.337893120010551     
   36.1746798662800     
   34.9490215271063     
  -1.34740581269040     
   38.2215626248647     
 -0.702585512205229     
   36.8089692142580     
   34.3965720874685     
 -0.660894683539579     
   36.7541803247064     
 -0.255692920787935     
   34.5161696932750     
 -0.143884212766950     
   34.8331157302051     
 -4.334451230545813E-002
   35.1566067495231     
 -7.881554508179921E-002
   35.6782975868112     
 -0.232923167685725     
   36.5595672341786     
 -0.205700973584944     
   34.9708211732786     
 -0.862130849815864     
   36.8266681785140     
  -1.54599299759007     
   38.5009354741211     
  -1.83291430889869     
   39.2818274003374     
 -9.903683865587659E-002
   35.7238623434786     
  -1.54904103144461     
   38.7052579458888     
  -1.14036609408282     
   38.3779042790455     
  -2.28517981282303     
   40.9660077537421     
  -2.94368741174181     
   41.7799276980423     
  -1.86729592920429     
   39.4639995319704     
  -2.78388477747828     
   41.8699996876988     
  -2.20026460137004     
   40.4506145159490     
  -3.20363098489004     
   42.9892045631882     
  -2.63824436240227     
   41.4876325480752     
  -3.56211104603693     
   43.7527800723411     
  -4.27399126604480     
   45.4469204598337     
  -2.65322145291336     
   41.3104440400988     
  -3.24126180414635     
   42.7213929104279     
  -3.73384057719803     
   44.0470786906718     
  -1.41051601387827     
   38.9398891806067     
  -3.45388885988756     
   43.5940673807705     
  -4.06084138916430     
   45.0805371524102     
  -3.22872535092749     
   43.1274389716914     
  -4.22684494390056     
   45.5511049266986     
  -3.23405940156455     
   43.0225881467514     
  -4.20212204089524     
   45.5264345365515     
  -1.33950728095251     
   38.7804399472092     
  -3.45544867114545     
   43.5703275302400     
  -4.02291478514245     
   44.9186470567749     
  -4.00545080794272     
   45.4343534635276     
  -5.23015958901019     
   48.6695823300046     
  -4.09966519790787     
   45.8199568751432     
  -5.19824739794466     
   48.2031521174000     
  -3.74958097067413     
   44.1832796079264     
  -2.04782876324578     
   40.5800668322848     
  -4.05604750839336     
   45.5719864228948     
  -5.09270941684211     
   48.3325473181570     
  -4.28477024198818     
   45.9456883096884     
  -5.23690392708070     
   48.4480182844973     
  -4.77835270662369     
   47.3725684045923     
  -5.97278344116619     
 -0.699168434631690     
   51.1947487854421     
  -5.14996762742676     
   48.8769347280850     
  -6.62708176943558     
  -1.17879009506906     
   53.0676529115092     
  -5.12197945799376     
   48.3667356888201     
  -6.07274226780759     
 -0.501665870657342     
   51.1875956947950     
  -4.82712165186159     
   47.8736648729890     
  -6.36509363366304     
 -0.984850619912093     
   52.6224439115774     
  -7.62576431927351     
  -2.00417980911366     
   56.3187402480020     
  -7.04089672993124     
  -2.70762592878900     
   54.2868239650834     
  -5.66973406640421     
  -1.88621162970662     
   50.6949398234078     
  -6.62078272555535     
  -1.24393000381355     
   53.4102703233316     
  -5.04428512497945     
  -1.17418192896857     
   49.8719465211835     
  -7.39650558066501     
  -1.84559058450467     
   57.1113620630363     
  -6.32320989480808     
  -3.79888784649425     
   54.0202834354903     
  -8.35802749413360     
  -2.70404154482814     
   60.9718738224298     
  -10.2861152159501     
  -3.28181494825453     
   68.1111177660378     
   33.1223327026696     
  -6.92413451102508     
   60.0085061082084     
  -8.23045506947861     
   72.7365389147346     
  -3.17726937142130     
  -15.9431915469316     
  -24.8390375107337     
  -5.16764590595153     
  -2.60948804643481     
  -10.2869920968696     
  -14.1157993921669     
  -6.67269011770701     
 -0.972682604629984     
  -8.64883816824189     
  -12.1791900367040     
  -1.08846511829658     
  -3.19126853320757     
  -4.74652378495949     
  -2.09853088950066     
  -4.25001629000773     
   49.4439161314617     
  -3.18372367551334     
  -11.6747521177405     
  -36.7385377344365     
  -2.15887723010191     
  -6.22800109499560     
  -11.0199128965268     
  -19.5451216816321     
 -0.218504907659291     
  -4.07985138014095     
  -10.1328087008176     
 -0.778857434942517     
  -2.62174594112894     
  -5.91893360402730     
  -5.06839594880839     
  -3.94888342494011     
  -12.6960309946990     
  -4.94956315396693     
  -1.51592355133881     
  -5.53221144369257     
  -4.59697083132407     
 -0.537141877525013     
 -0.510488404971276     
 -0.112396236675255     
  -1.12084674120768     
  -4.11962485193211     
  -4.98332462945166     
  -5.96511810212664     
   35.1161687272072     
  -4.95440897165763     
 -0.778997637861279     
  -5.09062447931619     
   33.2937051397385     
  -26.9008760746917     
  -3.48907763209901     
  -8.68138787560020     
  -1.16444926033806     
  -4.88209370775332     
  -1.68851994910079     
  -5.06340652394943     
   33.3850549827437     
 -0.204211486868376     
  -7.08635906637475     
   38.5036305332875     
  -3.85761822393735     
  -1.19102115094932     
  -5.98931977662586     
   36.3265053879226     
  -27.3430237434460     
  -4.12083404504501     
  -8.27622605756336     
  -1.72020235443042     
  -3.89316934820187     
  -2.30999941855145     
  -6.61954227424181     
   38.8124788848353     
  -3.64238363707613     
 -0.964123054530298     
  -7.10450226931389     
   40.0955839203471     
  -3.41778291265496     
  -1.35934334496147     
  -6.80598835616828     
   39.0343657043023     
 -0.145435822232601     
  -12.5430290919707     
  -3.00819966516004     
  -3.42281048581124     
  -5.34789312093789     
  -1.27504114999844     
  -6.64603831137315     
   39.2537028822237     
 -0.902508217213147     
  -5.61268146296224     
   38.8788545870236     
  -4.00042604534907     
  -1.47182107719924     
  -7.49916676452308     
   41.7503524433143     
  -4.33921806572070     
   34.6200706676957     
  -26.4762448363669     
 -0.594749739286554     
  -4.63639733062158     
  -7.73763714833242     
  -3.14617359764952     
  -1.06022048942016     
  -8.63758502334517     
 -0.582172471762418     
   48.0079187198928     
  -9.97880885904107     
  -4.64761349548443     
  -1.27653561645270     
 -0.329913118712105     
  -5.25921746037368     
  -30.1965389320164     
 -7.349491814605269E-002
  -4.36018132542862     
  -9.29356901686034     
  -2.06790091407335     
  -4.17545474635104     
  -8.32708516794269     
   44.4080411176923     
  -2.98985967034836     
  -3.38015198387998     
  -40.1868218877690     
 -0.277109590232637     
  -3.13364015327883     
  -7.74237503155789     
  -11.8932208502410     
 -0.973026771268022     
  -10.8510074915458     
  -1.34666017579462     
  -4.07686847371202     
  -3.59864862752744     
  -24.4422518493435     
 -0.788752723892938     
  -2.69149363735708     
  -4.71050160721498     
  -7.06248143650607     
  -11.7871987097790     
 -0.934011433470873     
  -3.62745490501096     
  -1.88022123929951     
  -6.92463195326217     
   45.1046757508679     
  -3.10692926669978     
  -3.47642321785571     
  -9.53944395388371     
  -49.9990663529403     
  -1.28775134180090     
  -3.62392805359297     
  -6.92488196223402     
  -9.72569979831216     
  -14.0116047985439     
 -0.284396914887887     
  -3.98827027715274     
 -8.136673369898660E-002
  -5.20689461014481     
   43.0837667658928     
  -3.66507036510343     
  -1.36259535306240     
  -6.94217953237704     
   37.5115444026380     
  -5.00602764139014     
  -20.3665174133084     
  -1.62952113077860     
  -5.48694918154295     
  -4.82119118662668     
  -3.82519799808462     
  -23.0130713428051     
 -0.546767113221856     
  -2.13846690505567     
  -3.83415116699725     
  -4.87675853012915     
  -2.60028166774813     
 -0.783086655455552     
  -2.49415883189448     
  -2.71130116791399     
  -1.95227469194827     
  -1.28028762945794     
 -0.247435300491853     
  -3.13142075519726     
  -13.0452294356365     
 -0.957501434710863     
   59.1624525677280     
   62.4756413739553     
   59.1624525678415     
  -5.62055566635836     
  -99.3180968131998     
  -23.3740410013403     
  -1.13659899769335     
  -8.86805597208433     
  -20.8516310842538     
  -21.8995182125358     
  -8.09253547709637     
  -3.69615415561430     
  -1.24946290519336     
  -25.8826861786114     
  -1.94520574895775     
  -3.41562909050318     
  -1.03893927657778     
  -25.3002871920448     
  -1.72991461457804     
  -2.28313144499278     
  -1.09519687641219     
  -23.1936168038202     
  -2.45388980289921     
  -1.25737841147702     
  -3.18446184645785     
  -1.93735472094171     
  -6.42994895804703     
  -2.64484211935748     
 -0.697151628709062     
  -7.62330429817877     
  -4.81922664304050     
  -1.61362002757655     
 -9.759546393575002E-004
  -3.66241807636682     
   33.1709431052429     
  -2.31677785371145     
 -9.103370289215895E-002
 -0.326078027209144     
  -5.62825610044034     
  -20.0515693212163     
  -12.0957945981066     
 -0.424176066562246     
  -4.79897995223707     
  -8.80973212897465     
 -0.897605356291308     
  -1.95801963810254     
  -4.28518483120133     
 -0.492778843128531     
  -1.42653003007251     
   33.2712547119911     
   33.2600814895086     
   33.2598303402927     
   33.5870775951568     
   33.1478044702956     
   33.5817410228137     
   33.1267055540441     
   33.7889219418586     
   33.6466778722018     
   33.6965499969376     
   33.3053040810691     
   33.2022615086718     
   33.7835193080488     
   33.6067501625254     
   33.6254119297612     
   33.1864245353966     
   33.7786058073800     
   33.6005504287616     
   33.2561971181340     
   33.0998128583723     
   33.7742453110206     
   33.5637151791902     
   33.2054985520857     
   33.0025978837632     
   33.8251357383436     
   33.8627471377887     
   33.6105784101536     
   33.3803919753733     
   33.8214410676642     
   33.8278322916296     
   33.5599977478552     
   33.2769666463604     
  -6.40615262867546     
  -6.33352641608293     
  -1.00532109046926     
   33.8138012680662     
   33.7947201230169     
   33.6025219044385     
   33.3097349036261     
   33.0717677525174     
  -3.13724122561782     
  -2.23652122831029     
   33.8098259529648     
   33.7675507100271     
   33.5344814229686     
   33.2287950412249     
   33.9071643164995     
   33.6942649325309     
   33.5615322411749     
   33.2433217263926     
   33.9028378780218     
   33.6870831840598     
   33.5094023502011     
   33.1633433258280     
   34.0322512336339     
   33.8851261333774     
   33.7272893860474     
   33.3737224657672     
   33.1480971355475     
   34.0292089095076     
   33.8644542343755     
   33.6995212711904     
   33.2934418092465     
   33.0363731083045     
   34.2078574185102     
   33.9000831529534     
   33.8998724923487     
   33.4032204110062     
   33.3681801127281     
   34.2052762749630     
   33.8700702112295     
   33.8390403621359     
   33.3340681426290     
   33.2325796046579     
   34.4220913117882     
   34.1599595508641     
   34.0865591281519     
   33.6135215212548     
   33.4230668578067     
   34.4197314606921     
   34.1231346837205     
   34.0391661789358     
   33.5154837060181     
   33.3068160224517     
   34.6192294879119     
   34.3632680073435     
   34.3069174802843     
   33.8534121148571     
   33.7487748029332     
   34.7412842427495     
   34.6379162461506     
   34.8918419923171     
   34.6027890361679     
   34.8017198905091     
   34.3570358544978     
   34.4603542819509     
   33.6009791105526     
   33.5824014345880     
   34.7388551193037     
   34.6151403252568     
   34.8607049764089     
   34.5271951748859     
   34.6830685347605     
   34.2519446692882     
   34.1989789606007     
   33.3754097165620     
   33.2634917356724     
   34.7326482418406     
   34.5409502886671     
   34.0195320426017     
   33.8448053015384     
   33.2825252501885     
   33.0549534933952     
   34.7304308795405     
   34.4946605754891     
   33.9742972228215     
   33.7755466326997     
   33.1857197223456     
   34.7842514276766     
   34.8341752197302     
   34.7146602757159     
   34.3791947305168     
   34.0597638116427     
   33.5380053982577     
   34.7735172634520     
   34.7268861181321     
   34.7068894910613     
   34.7440628076337     
   34.6807095914340     
   34.6284479114068     
   34.4811483945696     
   34.1299223687288     
   33.1846048490288     
  -12.5059059026500     
  -9.78026898677747     
  -4.21014394957769     
  -2.05632678692921     
  -4.36149365538068     
  -8.84635350347709     
  -7.94241790321527     
  -5.15400549760926     
   34.7710615806887     
   34.7048517155578     
   34.6653096360227     
   34.6909623756637     
   34.5637340947167     
   34.5078114146759     
   34.3086027938884     
   33.8797665682188     
  -3.55423686461484     
  -8.29002432435111     
  -4.18197705635864     
  -1.98614131520093     
  -2.15598389834158     
  -3.24683231611372     
  -3.76991411081847     
  -4.94708461779433     
  -2.60279735590368     
  -3.45685578167791     
  -6.04156643864109     
  -3.00486283469807     
  -3.40484215973142     
 -0.884619877628072     
  -1.65815564360204     
  -3.10991168104465     
 -0.657139758669492     
  -2.78407828906013     
 -0.174751245960992     
   34.7646593549348     
   34.5203627503096     
   34.1392603074640     
   33.6564532526603     
   33.2555178824622     
 -6.144552984922558E-002
   40.1031785465097     
   86.5055249889277     
  -12.1976887913678     
   34.7768923350284     
   34.9334041631889     
   35.1204902996833     
   35.1026156733801     
   35.0132277196369     
   34.7230960241234     
   34.4025055212331     
   33.4821848093890     
   34.7745199967500     
   34.9192593036794     
   35.0814637881410     
   35.0425415093681     
   34.9070781375372     
   34.6033801761448     
   34.2339521084333     
   33.2690742428756     
   37.4547353785885     
   34.7529190985434     
   34.6324511202115     
   34.5118479387618     
   34.0644935760801     
   33.6568537353762     
   33.2863420447581     
   34.7510766501352     
   34.6180804404824     
   34.4549532745737     
   33.9640011127409     
   33.5570677073096     
   33.1864326935665     
   34.8716942754645     
   34.6709970594921     
   34.4076200584326     
   34.1979145846238     
   33.8253284888172     
   33.2562206418902     
   34.9093495560441     
   34.9663849992763     
   35.1453744752082     
   34.8627359896567     
   34.9969389301014     
   34.6479973856123     
   34.7740067355653     
   33.8197117630094     
   33.6168136497155     
   34.8834392702448     
   34.8166082420029     
   34.6797980733185     
   34.7074317465772     
   34.4175106618141     
   34.4150051558813     
   34.0449680662416     
   34.1724197165958     
   33.4880542770055     
   34.8739846639217     
   34.8799006710419     
   34.8214028269873     
   34.6271829025285     
   34.5849894264218     
   34.2875918495879     
   34.1648191339868     
   33.6463768640301     
   33.3930331299494     
   34.8602118240373     
   34.8402390753495     
   34.7703875489042     
   34.7091578274219     
   34.4992974469120     
   34.4144242262090     
   34.1213631202021     
   33.9269050053939     
   33.3164012157282     
   34.8409912204917     
   34.8868285196297     
   34.8112101930056     
   34.7041863875012     
   34.5658717475009     
   34.3877346534888     
   34.1835344888578     
   33.8281852953433     
   33.5865059133158     
   34.8282366724331     
   34.7833843935058     
   34.7336177933308     
   34.6217561472625     
   34.4962170571506     
   34.3398163005569     
   34.1325193536797     
   33.8635379570931     
   33.3475328137798     
   34.8287828718643     
   34.8443024290886     
   34.8014053315279     
   34.6720940998256     
   34.5256103494053     
   34.3431285983634     
   34.1447337531584     
   33.7920912273859     
   33.5273773168980     
   34.8160150208241     
   34.7912058013345     
   34.7191089922314     
   34.6189714686043     
   34.4937020807576     
   34.3358878306116     
   34.1204430226726     
   33.8500074601370     
   33.3416510284663     
  -6.03129941216901     
  -13.2644151513517     
  -34.8307011967697     
  -59.1064448249931     
  -18.0534746024454     
   34.8199186960123     
   34.8245953259932     
   34.8092610273632     
   34.6699317320116     
   34.5193451695899     
   34.3366808485222     
   34.1475340009478     
   33.8185345368579     
   33.5272477835946     
  -2.48959235256683     
  -8.11404531146002     
  -18.5421939184796     
  -36.2229071022048     
  -34.7993031650095     
  -5.93861022014766     
  -4.55759832425358     
  -16.2117976308740     
  -24.5629041462828     
  -23.2752635199009     
  -3.98052458437700     
   80.2006045566597     
 -0.958052639519191     
  -6.27277832951036     
  -9.49866979875926     
  -17.9530570742661     
  -13.8260818609361     
   50.3795505963162     
   34.8056518535456     
   34.7867223065271     
   34.6946196727982     
   34.6027878116583     
   34.4791094737340     
   34.3251061275636     
   34.1085867645143     
   33.8363011738097     
   33.3541602381253     
  -1.80495400968673     
  -15.1879762409173     
  -10.2308213293878     
   51.9945515038599     
 -0.672681104875828     
  -2.17039109452510     
  -10.2934185944010     
  -3.00204403356823     
  -8.28785145621772     
 -0.405014117168081     
   34.3645849964266     
   34.8098186708844     
   34.8065821489236     
   34.8066329350729     
   34.6520131125402     
   34.5128411045119     
   34.3163728827762     
   34.1279446244335     
   33.7609700721174     
   33.5232394062674     
   34.8024868387457     
   34.7654958181557     
   34.6538964483847     
   34.5748501113449     
   34.4456995080361     
   34.3069000386542     
   34.0802373770410     
   33.8342682989623     
   33.3243790425637     
   34.8034227155576     
   34.8114792782925     
   34.8292508184502     
   34.6594514726673     
   34.5296106217042     
   34.3128195195230     
   34.1262588084243     
   33.7638760970812     
   33.5205180190206     
   34.7993458668391     
   34.7747892904259     
   34.7059970199411     
   34.6398885807988     
   34.4998918359060     
   34.3693132996991     
   34.1341230761205     
   33.8711209892643     
   33.3555413471846     
   34.8011345840477     
   34.8000742289998     
   34.7796073192574     
   34.6280989098649     
   34.4955693629991     
   34.3001281009044     
   34.1331978521926     
   33.8002647522265     
   33.5449701755248     
   34.8247669108834     
   34.7505588574521     
   34.7732834897086     
   34.6172640188757     
   34.5649991929659     
   34.2879901223370     
   34.2186598445389     
   33.6831075915515     
   33.6478716110325     
   34.8216547689345     
   34.8072939529766     
   34.7144457802246     
   34.6291580796979     
   34.4378751555401     
   34.3502689824935     
   34.0534105638002     
   33.9116089739681     
   33.2994097368918     
   34.8173721050133     
   34.8224335569777     
   34.8077325851497     
   34.6955537117651     
   34.5468824570986     
   34.3526987426489     
   34.1518323463033     
   33.7825640875012     
   33.5504868195777     
   34.8023644996990     
   34.7836983875756     
   34.7027101457305     
   34.5880766348727     
   34.4548020759748     
   34.3027083197055     
   34.0718421515421     
   33.8160185233523     
   33.2758160314781     
   34.8072732553802     
   34.8029222544169     
   34.7938987060213     
   34.6440614416545     
   34.4740632408657     
   34.2619450528501     
   34.0425317064532     
   33.6628842585048     
   33.3732996276571     
   34.8390820079374     
   34.7482832308464     
   34.7668643698155     
   34.5697850868478     
   34.5478473645165     
   34.2272472062484     
   34.1827006455731     
   33.5779291824111     
   33.5047838495239     
   34.8309391666139     
   34.8530734324444     
   34.7089557438663     
   34.6266273511949     
   34.3845786123353     
   34.2992012883640     
   33.9458787371645     
   33.7965939577465     
   33.1400278643623     
   34.8211447735331     
   34.7707268424604     
   34.7557793687545     
   34.5959823485197     
   34.5093388193858     
   34.2643812172601     
   34.0868363604964     
   33.6665987455276     
   33.2761875600428     
   34.8520969442548     
   34.7939315490876     
   34.8110044436193     
   34.6475647214885     
   34.5599960877766     
   34.3460937700367     
   34.2343304527587     
   33.8328985519150     
   33.5642224743645     
   34.8449115886066     
   34.8224390937046     
   34.7371398387870     
   34.6578562902130     
   34.4922613485193     
   34.3694439776442     
   34.1019499481336     
   33.9030228993621     
   33.3944956536898     
   33.0464793941679     
   34.8517627566602     
   34.8347969056207     
   34.8537004262075     
   34.7053831851216     
   34.5795054663259     
   34.3705293510495     
   34.2169083133612     
   33.8090675564206     
   33.5849435549408     
   33.0174054765214     
   33.0027846443718     
   34.8478555220423     
   34.8032715849270     
   34.7280415833502     
   34.6481377672466     
   34.5103868331719     
   34.3757250353973     
   34.1388160684612     
   33.9194278372195     
   33.4044804789421     
   33.4737835963182     
   33.4146226952658     
   33.4260158689083     
   33.1995282527970     
   33.6179875065716     
   33.3085371222341     
   33.3345508512499     
   33.0756745130579     
   34.8587581885286     
   34.8503954702572     
   34.8589846848226     
   34.7196192212595     
   34.5557691092083     
   34.3537225215090     
   34.1649387243244     
   33.8074791830262     
   33.5943794828386     
   33.5647024047971     
   33.0841742174446     
   33.0045163486054     
   33.4952630465924     
   34.8512591042489     
   34.8217324721893     
   34.7331683850569     
   34.6629928506307     
   34.5689759562425     
   34.4404815688162     
   34.2298481759444     
   34.0026267712575     
   33.5165081944029     
   33.9238340187588     
   33.3303435197643     
   33.8956228307098     
   33.2528212396042     
   34.8681745787728     
   34.8337248443071     
   34.8866633416643     
   34.7402575795043     
   34.5802832870615     
   34.4053224561377     
   34.2449960602581     
   33.9440946231405     
   33.7516088100798     
   33.8848781770913     
   33.1850307514887     
   34.2809702877141     
   33.8700254360613     
   33.5696891694743     
   34.8603728725144     
   34.8347591564078     
   34.7435530495425     
   34.6795669659694     
   34.5820235427609     
   34.4417436787860     
   34.2279284244893     
   33.9972217193473     
   33.5417485746195     
   34.2505253080426     
   33.7785294115581     
   33.3392885460202     
   34.2144301352076     
   33.6356672034853     
   33.0578311196858     
   34.5993870028512     
   34.0954325330954     
   33.6261073598154     
   33.0394789412859     
   34.8751902060336     
   34.8403063429426     
   34.8941609109639     
   34.7490587145072     
   34.6031471439533     
   34.4357866825680     
   34.2727530506892     
   33.9705175146970     
   33.7288553159680     
   34.5204722182085     
   33.9224801711081     
   33.3470884693216     
   34.4574191111926     
   33.7036461117418     
   33.0176945335531     
   34.8732166408640     
   34.8694424220846     
   34.7636165099443     
   34.7024489091216     
   34.5983312143477     
   34.4583193058584     
   34.2520271858297     
   34.0239316586734     
   33.5769051334271     
   34.8288802490335     
   34.4923519180953     
   33.9801325444535     
   33.2621703132348     
   34.7465391353179     
   34.2830151471220     
   33.6943883135533     
   34.6847957816379     
   34.0666574306047     
   33.4190140776763     
   34.8890822986916     
   34.8354117932007     
   34.9105046069066     
   34.7559458825171     
   34.6292205165423     
   34.4572512387203     
   34.2999328064819     
   33.9765043883665     
   33.7594825372765     
   35.0472836583112     
   34.6537234160837     
   34.2801877545274     
   33.5736440725984     
   35.0121556102314     
   34.4460959927783     
   33.9867100814825     
   33.2341601711263     
   34.8817560279337     
   34.8719579799012     
   34.7674510687777     
   34.7316156089922     
   34.6334963153225     
   34.5230715143922     
   34.3335001617941     
   34.1379298698115     
   33.7076599476953     
   33.0674388507648     
   35.2402633206088     
   35.1254127138557     
   35.1935258145496     
   34.7315564095037     
   34.5929868861866     
   33.6832590238437     
   33.3005456945053     
   35.1906935045414     
   34.8960648485324     
   34.8423897841179     
   34.3269610454380     
   34.1245701536039     
   33.2191935107747     
   34.8880612667938     
   34.8631998280854     
   34.9191555213970     
   34.7869576087956     
   34.6732208549886     
   34.5076270649106     
   34.3805707806704     
   34.0755451252070     
   33.9075754557408     
   35.1115339266784     
   34.7323998546061     
   34.5744839538053     
   34.0124070653042     
   33.7737321480795     
   35.5530506263437     
   34.7762946584049     
   34.3991050656557     
   33.4994827081308     
   34.8817638070828     
   34.8574664050817     
   34.7755250320140     
   34.7396827426448     
   34.6373718789518     
   34.5275301621676     
   34.3341390998352     
   34.1530158208605     
   33.7254330277547     
   33.1397006814624     
   35.5180699851427     
   34.7134547926792     
   34.2871427242944     
   33.2892766144808     
   35.5032441094105     
   34.6620049102329     
   34.1763890612537     
   33.0691981103945     
   34.8879784601739     
   34.8716698800717     
   34.8998858456216     
   34.7844246689271     
   34.6608571354530     
   34.5166557697874     
   34.3696352627333     
   34.0871580647725     
   33.8925223183282     
   35.8999929999718     
   35.6081704442237     
   35.2797981963916     
   34.7067993992667     
   34.1356616247051     
   35.8776702065536     
   35.5039311932461     
   35.0477072236261     
   34.2231231063673     
   33.3705503019949     
   35.8504384600171     
   35.3527471863873     
   34.7449880911605     
   33.6834545054683     
   35.7968203209256     
   35.2301189652114     
   34.4548877715992     
   33.1522823475444     
   34.8804827470363     
   34.8486307337862     
   34.7807370650138     
   34.7274639559670     
   34.6334439631361     
   34.5091312003035     
   34.3299126389529     
   34.1298512970406     
   33.7292639322762     
   33.1329220945349     
   36.3158823150297     
   35.4957073997789     
   34.8957236880101     
   34.1579829995840     
   33.0453189632701     
   36.2662924510580     
   35.4036127864664     
   34.7004886656225     
   33.5526026652948     
   34.8920549305818     
   34.8719509503326     
   34.8997847971965     
   34.7846012319320     
   34.6657260930461     
   34.5113510378133     
   34.3639479965760     
   34.0742966171290     
   33.8696535778726     
   36.2355614830779     
   35.3188331289264     
   34.4573832297521     
   36.2199965764171     
   35.2518194456924     
   34.1105301982677     
   36.7218836092683     
   36.2542943983927     
   35.8092159622828     
   35.3796049192252     
   34.3247199632884     
   34.8844023660779     
   34.8682158099466     
   34.7907746960432     
   34.7438067143514     
   34.6552826091731     
   34.5512749794609     
   34.3784010115798     
   34.1945970990449     
   33.8034028217795     
   33.2134783570988     
   36.6384357652223     
   36.0737788680444     
   35.4126185286767     
   34.7135170091121     
   33.4715460564758     
   36.5703951060170     
   35.8339025777485     
   34.9862686279375     
   34.1414142029873     
   36.4849508789535     
   35.6378169914556     
   34.6141587566336     
   33.6673389428898     
   34.8878508801200     
   34.8758270991393     
   34.9012840373331     
   34.8201526862600     
   34.7187667181730     
   34.5745354755840     
   34.4657436576842     
   34.1935528418040     
   34.0442523066100     
   36.9096035875794     
   36.5523981841701     
   36.1373921775559     
   35.3073538234004     
   34.5705097059350     
   33.4727837187124     
   36.8734276482780     
   36.4665916113506     
   35.8935621597286     
   34.7167577089028     
   33.7387664987685     
   34.8808766350855     
   34.8524602140732     
   34.7956371867289     
   34.7491791329239     
   34.6651360211721     
   34.5729739911226     
   34.4060108667564     
   34.2508626554342     
   33.8884495417477     
   33.3769299459527     
   36.8478643662872     
   36.3655803213276     
   35.5853076937464     
   34.0680254566052     
   36.8237971286676     
   36.2795834231083     
   35.1595949053154     
   33.3691750074545     
   37.2779833135096     
   36.5758135851343     
   36.3360957622379     
   35.9276367305135     
   34.8062733930686     
   33.1155541794678     
   34.8857618638457     
   34.8814063124288     
   34.8894944642610     
   34.8159689471278     
   34.7051538559629     
   34.5705592976295     
   34.4383900506859     
   34.1876417770294     
   34.0192980582284     
   37.1865150687321     
   36.4126861147551     
   35.9862349297628     
   35.2992734087510     
   33.9953533806541     
   37.1205638865782     
   36.2154761315528     
   35.6050271230645     
   34.7532127093361     
   33.3385474253670     
   37.0506777085117     
   36.0522014500102     
   35.2290747409280     
   34.2555345778868     
   34.8781553059514     
   34.8442508129319     
   34.7968505351904     
   34.7414966852362     
   34.6592528664727     
   34.5554651431532     
   34.3985026358953     
   34.2242707145992     
   33.8627735255433     
   33.3421766780951     
   37.5300274722061     
   37.1562677037710     
   36.5825590884821     
   35.6537521807395     
   35.0066302190884     
   33.7252024283981     
   37.4769211472146     
   37.0215306424398     
   36.2588212314371     
   35.0590444674972     
   34.2525824059794     
   37.4366489879350     
   36.8464473176058     
   35.8640541993355     
   34.4805610363417     
   33.5913219100910     
   34.8860127461579     
   34.8859358899019     
   34.8903732779762     
   34.8228435079608     
   34.7005533306488     
   34.5530336498119     
   34.4157018181558     
   34.1635881478589     
   33.9771559158356     
   37.3887503709307     
   36.7026974857961     
   35.4276136059392     
   33.9180393476458     
   37.8677958315154     
   37.2308708013754     
   37.0896767477059     
   36.3941493154666     
   35.2241459155864     
   33.6527590973715     
   34.8767033400807     
   34.8480577606494     
   34.7916121541777     
   34.7249166107822     
   34.6514351563583     
   34.5502585739162     
   34.3883577700309     
   34.2043433339194     
   33.8482501451680     
   33.2968292517916     
   37.7993939597257     
   37.0697866990597     
   36.7471958137016     
   35.8046769769715     
   34.4978231070417     
   37.7523948354198     
   36.8558807688754     
   36.3467705200405     
   35.2651206684542     
   33.8838545081758     
   37.6966105241485     
   36.6860689579645     
   35.9545882494420     
   34.7757796614071     
   33.3451291032917     
   34.8858504853876     
   34.8681995220626     
   34.8900754235367     
   34.8120556874562     
   34.6927247418990     
   34.5349739207831     
   34.4165863181292     
   34.1463252510035     
   33.9826166722159     
   38.2076184111576     
   37.7696663846759     
   37.1611548314066     
   36.3341053093349     
   35.6083049388914     
   34.1205987440423     
   38.1608929217440     
   37.6548019100727     
   36.8736579876903     
   35.7361317839382     
   34.8130195281606     
   33.2701385434087     
   38.1328385525888     
   37.5408211966375     
   36.5889333794357     
   35.2630251001748     
   34.2495668749549     
   38.1004265240706     
   37.4366441493098     
   36.2428471077087     
   34.7877891374860     
   33.7270642530102     
   34.8784908028708     
   34.8675031974907     
   34.8073721291319     
   34.7713512916000     
   34.7176455360636     
   34.6507087435589     
   34.5059042919530     
   34.3655766362969     
   34.0266516521958     
   33.5247812276489     
   38.4451808374530     
   38.1154933789475     
   38.2935150132152     
   37.9001390764459     
   37.2950682160764     
   36.1569760294878     
   35.0764512782328     
   38.3684034056236     
   37.9873404814769     
   38.0151729687770     
   37.4359497689561     
   36.6751280769417     
   35.4900581381250     
   34.3438990613912     
   38.3069378415877     
   37.8058770136677     
   37.6576677976546     
   36.9510640576606     
   36.0900307831916     
   34.8552421148149     
   33.6490016105975     
   34.8699358594027     
   34.8826486566091     
   34.8693994390791     
   34.8498643815958     
   34.7412162386031     
   34.6343353125497     
   34.5345837295382     
   34.3374575042049     
   34.2243094043908     
   33.2893006146494     
   38.2297428857137     
   37.6400490138846     
   37.2571046211981     
   36.4617945009102     
   35.5382354800664     
   34.2510440985062     
   38.6928556226806     
   38.0299758134618     
   37.4681391430105     
   36.6344007246274     
   35.9970632243397     
   34.7320675248482     
   33.6779484721199     
   34.8566963463064     
   34.8323611443195     
   34.8023161156218     
   34.7190213434188     
   34.6512931074495     
   34.5503691058893     
   34.4029553946956     
   34.2422875874529     
   33.9304508310187     
   33.5102155816024     
   38.6479742905727     
   37.9269484532489     
   37.2071551726432     
   36.0976583372279     
   35.2659257819614     
   33.9438153064542     
   38.6187493316378     
   37.8064511212603     
   36.8852908292138     
   35.5320032062291     
   34.5833024104952     
   33.2273121624893     
   38.5916955061612     
   37.7130369876599     
   36.4826411489949     
   34.9327859866816     
   33.9230400906655     
   34.8619289411486     
   34.8505573502412     
   34.8442637002584     
   34.8057707859418     
   34.6903472487048     
   34.5610937966533     
   34.4361116386398     
   34.1972667157945     
   34.0019668900828     
   33.0601075661799     
   39.0660788812336     
   38.5945730831428     
   38.5379356503524     
   37.8747118506283     
   36.9068582085585     
   35.2201527713996     
   33.6155416337882     
   38.9946236247360     
   38.4140984386317     
   38.1684048836123     
   37.2664152386046     
   36.1473003405016     
   34.4264048350863     
   38.9425894662473     
   38.1696171154696     
   37.7398264588334     
   36.7067531895918     
   35.5040128410826     
   33.7469343601603     
   34.8763647700413     
   34.8400628520583     
   34.8446956722385     
   34.7588152607245     
   34.7478219159560     
   34.5570606725859     
   34.5244486107276     
   34.1702964440888     
   34.1389569590485     
   33.0028777818515     
   38.8740026159292     
   37.9725317943639     
   37.3387101045328     
   36.2110977571749     
   34.9467017581055     
   33.1412476807858     
   39.3645953120769     
   38.8901403609927     
   38.3798604680892     
   37.5902937417274     
   36.9620427116956     
   35.6929044047979     
   34.3931780685663     
   39.3227500608850     
   38.7933209381373     
   38.1333990021488     
   37.0045924109124     
   36.1415544503172     
   34.7943348687996     
   33.4897475569231     
   34.8674626888607     
   34.8649485116673     
   34.8073892291019     
   34.7628512579391     
   34.6224803572626     
   34.5726842766339     
   34.3762282519541     
   34.2866053861896     
   33.8954647493183     
   33.4537725680579     
   39.2923312701525     
   38.6729517206657     
   37.8098580564190     
   36.3829537514776     
   35.3837823836076     
   33.9836215013509     
   39.2604907709807     
   38.5713893704998     
   37.3861040376004     
   35.7284334968149     
   34.6587908670072     
   33.2269951428953     
   34.8567595894599     
   34.8662295532375     
   34.8431229419290     
   34.8241336113463     
   34.7224037858963     
   34.5917319915747     
   34.4543434756007     
   34.2036717190485     
   34.0454974477995     
   33.0516743426921     
   39.7177828280879     
   39.1292750767464     
   39.0595643534124     
   38.5402112178111     
   37.5775189013279     
   35.9942707631309     
   34.4826047164396     
   39.6382776808875     
   38.9256899059009     
   38.6581979008089     
   37.8916068934187     
   36.7795719889086     
   35.1640426672905     
   33.6651533744782     
   39.5812965678790     
   38.6536465956163     
   38.1929786943184     
   37.2954965188325     
   36.1052479672958     
   34.4584304649346     
   39.5064750527392     
   38.4388136012219     
   37.7669746691592     
   36.7747655636729     
   35.5279342729838     
   33.8395944665031     
   34.8527130791261     
   34.8273526835551     
   34.8010787398072     
   34.7202905752946     
   34.6491055073771     
   34.5623169945936     
   34.4264714730295     
   34.2716836665229     
   33.9300061159410     
   33.4375019493628     
   39.9937144739521     
   39.6636257833104     
   39.1402425367119     
   38.2483140175659     
   37.6050396375900     
   36.2573525316218     
   34.9394954039339     
   39.9542867794288     
   39.5701735388103     
   38.8950657169287     
   37.6662658133729     
   36.7801175723951     
   35.3477826074457     
   34.0218758376233     
   39.9267711415713     
   39.4641508383325     
   38.6074464607866     
   37.0896288789714     
   36.0631261852962     
   34.5764872286490     
   33.2383872413926     
   34.8574668934621     
   34.8512247268716     
   34.8386168845313     
   34.8171998937050     
   34.7097269118816     
   34.5893054189897     
   34.4616592720043     
   34.2507883449290     
   34.1060890815540     
   33.1386690064508     
   39.8970723818389     
   39.3712534196242     
   38.2276867634181     
   36.4736772753047     
   35.3715981935258     
   33.8522075187112     
   40.3218263549354     
   39.6800857443368     
   39.7559377550105     
   39.3693048973609     
   38.6028243085467     
   37.0876837250635     
   35.7515104176373     
   33.1857233699253     
   40.2254995092399     
   39.5351397608107     
   39.4265171034384     
   38.7699895831883     
   37.7899739463314     
   36.2349338614815     
   34.8492175413575     
   34.8663688459863     
   34.8335309089758     
   34.8344932295954     
   34.7538946231902     
   34.7628363901454     
   34.5915277048425     
   34.5927426910896     
   34.2398532677543     
   34.2531634686859     
   33.2000424340330     
   40.1582606159310     
   39.3481642418552     
   39.0432796745700     
   38.2274702272367     
   37.1300828459860     
   35.5000597898388     
   34.0890182586237     
   40.0853590955560     
   39.1934187366665     
   38.6317889315217     
   37.7236633989130     
   36.5569314044713     
   34.8664853477374     
   33.4036227590937     
   40.5371934413420     
   40.1377719493528     
   39.7098023143062     
   38.9042586501699     
   38.4409390131563     
   37.3143583464486     
   36.1637223389459     
   33.7802527746423     
   34.8591159694089     
   34.8516723636304     
   34.8121098590810     
   34.7891712392791     
   34.6521742323397     
   34.6113885037417     
   34.4231562556377     
   34.3759623931588     
   34.0120525495153     
   33.6412467140063     
   40.4722590371232     
   40.0261692944621     
   39.4414337061167     
   38.3946946057349     
   37.7368372759694     
   36.4947223975932     
   35.2947961570020     
   33.0074415355132     
   40.4217665102462     
   39.8947598652665     
   39.1323517544954     
   37.8631794573927     
   37.0675976682119     
   35.7509874792061     
   34.5207871725547     
   40.3705537306438     
   39.7725805697518     
   38.7668599043003     
   37.3057571095548     
   36.4242168534765     
   35.0634618137487     
   33.8022770705540     
   34.8439906020929     
   34.8718579378324     
   34.8217660794224     
   34.8238779378719     
   34.7392694117187     
   34.6336404864866     
   34.5085010900780     
   34.2846986060594     
   34.1514813327274     
   33.2909248981811     
   40.7921823627943     
   40.2205087304764     
   40.2227079656785     
   39.7043919554217     
   38.9645173458145     
   37.5269595217143     
   36.4351378116181     
   33.9529734937481     
   40.7126405446684     
   40.0114203486472     
   39.8372136635157     
   39.1427730592697     
   38.2636875542972     
   36.8133855023750     
   35.6715115464920     
   33.3044605996918     
   40.6599481698294     
   39.7726432358873     
   39.3892221943184     
   38.5988088913622     
   37.6560371922902     
   36.1741734667945     
   35.0090585380025     
   40.5860023887986     
   39.5984073293066     
   38.9547713719499     
   38.1102608145926     
   37.1279842162615     
   35.6113205520596     
   34.4019193195089     
   34.8298306227339     
   34.7950976428765     
   34.7949490552926     
   34.7154641810811     
   34.6452435424383     
   34.5612443740679     
   34.4448601436481     
   34.3072099131319     
   34.0083604295717     
   33.5744248801835     
   41.0684201792708     
   40.6881448682127     
   40.3620595868513     
   39.4097024160825     
   38.8674271638394     
   37.5027923305413     
   36.3871389634255     
   33.9057160291391     
   41.0342765767210     
   40.6164439038497     
   40.1405632483038     
   38.9144823975092     
   38.1333757497327     
   36.6381390729072     
   35.4727770197105     
   33.0864197598384     
   34.8332456064629     
   34.8348738986203     
   34.7971842282271     
   34.7885100108472     
   34.6886708470217     
   34.5679620139986     
   34.4413005338125     
   34.2340148056827     
   34.0908353199159     
   33.2164973448561     
   41.0115428932876     
   40.5396940532775     
   39.8984588943323     
   38.3907849146655     
   37.3861818524722     
   35.7920548508447     
   34.5993314616461     
   40.9946516661443     
   40.4808877300730     
   39.6046453310908     
   37.7789820841499     
   36.5950828431456     
   34.9409721591856     
   33.7329163700930     
   41.4589125615043     
   40.7199734056595     
   40.6551309809255     
   40.2963672898058     
   39.5860917856614     
   38.0557026101333     
   36.5288223100185     
   33.8103725642866     
   41.3795048651183     
   40.5712312871008     
   40.3125895538470     
   39.6192952057217     
   38.6605906005983     
   37.0219116895345     
   35.4677197521969     
   34.8173069227764     
   34.7994411132294     
   34.7877010308250     
   34.7110970239921     
   34.6457805859757     
   34.5607353852279     
   34.4354530843348     
   34.2854209311204     
   33.9812649019240     
   33.5394982536526     
   41.3128284797528     
   40.3526479075555     
   39.8882935255964     
   39.0130134421108     
   37.9055907283841     
   36.1394277574938     
   34.5272077971135     
   41.2299521666324     
   40.1630462698752     
   39.4858796278814     
   38.4807861383449     
   37.2660311066637     
   35.3775513231302     
   33.6661028672992     
   41.6894708381217     
   41.4178878391397     
   40.9853978416674     
   40.1534189419293     
   39.5854845686305     
   38.4250139733533     
   37.1437171160059     
   34.4854732705463     
   41.6364805534604     
   41.3249845418747     
   40.7546381797905     
   39.5692682043589     
   38.6869564605501     
   37.3544985871916     
   36.0127840511645     
   33.4830239589299     
   34.8156027855925     
   34.8011525919433     
   34.7705292910143     
   34.7581677085506     
   34.6639233974823     
   34.5413390878680     
   34.4279908795389     
   34.2267971338220     
   34.0929416450098     
   33.2067672963995     
   41.5934977380502     
   41.2158969974586     
   40.4663176016559     
   38.9034513573554     
   37.8029091890405     
   36.3823219220876     
   35.0136515784996     
   41.5481645251278     
   41.1067741401807     
   40.0733856028009     
   38.1647015638511     
   36.9465140479488     
   35.4854836439061     
   34.0963802918452     
   41.9761502334558     
   41.2500083843901     
   41.2358258052105     
   40.9945364635983     
   40.2209306875513     
   38.6326601409689     
   37.1930328734382     
   34.5879882690298     
   34.8204275423314     
   34.8013673323733     
   34.8172087084855     
   34.7464780890663     
   34.7805615676064     
   34.6541074811183     
   34.6803075837606     
   34.3894176643184     
   34.4346967194556     
   33.5013134635128     
   41.9037294563533     
   41.1150133681907     
   40.9867844585408     
   40.5575274028683     
   39.6305764530767     
   37.9775259417255     
   36.5219547138981     
   33.9884361157901     
   41.8497169611745     
   40.9496595115201     
   40.7027505823543     
   40.1491814858593     
   39.1141162981990     
   37.3922054624077     
   35.9086195251570     
   33.4320503972188     
   41.7913427908821     
   40.8064591374969     
   40.4227366209535     
   39.7682220368635     
   38.6467045716495     
   36.8577261951105     
   35.3300600744325     
   34.8167851601753     
   34.8147274675706     
   34.7860650482451     
   34.8041476278548     
   34.7261111039262     
   34.7316353082257     
   34.6113921465816     
   34.6334176470467     
   34.3892458860024     
   34.1664031533384     
   41.7228517797895     
   40.7129359674333     
   40.1926669643811     
   39.4083193202817     
   38.1800530302396     
   36.3143777383153     
   34.7272343012047     
   42.1045202555016     
   41.9738241546663     
   41.6699423674350     
   40.9640530318780     
   40.8697727588952     
   39.9987971618446     
   39.2114294839585     
   36.7729629342239     
   34.8266732024452     
   42.0243835028015     
   41.8391565289512     
   41.4476628065626     
   40.5586298973998     
   40.2371483910172     
   39.2107743829631     
   38.3238780112154     
   35.9349956077084     
   34.0179784525886     
   34.8042747281712     
   34.7837130789807     
   34.7697036107387     
   34.7056621917078     
   34.6817206846884     
   34.5707134630860     
   34.5139688283803     
   34.3420967013664     
   34.2491280935047     
   33.9305025246369     
   41.9460303546233     
   41.6424340463119     
   41.1276791851339     
   40.0670531693811     
   39.6010856438859     
   38.4681502537739     
   37.5022496590310     
   35.1363418544478     
   33.2308859728356     
   41.8680516694563     
   41.4665216161611     
   40.7853414502339     
   39.5841779304412     
   39.0298320620377     
   37.8400666906401     
   36.8120853665295     
   34.4328281761624     
   42.2830349496485     
   41.5687152014612     
   41.5201941959155     
   40.9111080813933     
   40.2988975448295     
   38.9356718070647     
   38.2367247028383     
   36.1039336981897     
   34.8495497368349     
   34.8079259388561     
   34.7793581528520     
   34.7763257648101     
   34.7331493081944     
   34.6740745789796     
   34.5598545806514     
   34.4707402458427     
   34.2831860750436     
   34.1071205953561     
   33.5097195888821     
   42.2118537812479     
   41.3607952276574     
   41.1867353882518     
   40.4396346591833     
   39.7152779477478     
   38.3182534449908     
   37.5930659022542     
   35.5008031990140     
   34.2437228927886     
   42.1643477452389     
   41.1055996046137     
   40.8027406696091     
   39.9701917411673     
   39.1829258724898     
   37.7549282979946     
   37.0004929630654     
   34.9300099240912     
   33.6616250428288     
   42.5284387156733     
   42.4713565480931     
   42.3095641355705     
   41.6236761511842     
   41.5760412517141     
   40.4758790563870     
   39.8783924385074     
   37.6129525982855     
   36.5699349299701     
   34.8178453743621     
   34.8041840632356     
   34.7982382401458     
   34.7495343138902     
   34.7349112276986     
   34.6086371747193     
   34.5469039066155     
   34.3156851188791     
   34.2318773095917     
   33.3879998405315     
   42.4672689058940     
   42.1928293805112     
   41.9255396065349     
   41.1649786231557     
   41.0338395485106     
   39.8839103246173     
   39.2358663141459     
   37.0142757314347     
   35.9657161771393     
   42.3907765359337     
   41.9121581640208     
   41.5538375634432     
   40.7403950364674     
   40.5628134335879     
   39.3583204563555     
   38.6634291314746     
   36.4569595686690     
   35.3876101168274     
   42.2879686186123     
   41.7233636001023     
   41.3029517992615     
   40.4151605827144     
   40.1765297265782     
   38.8879412690332     
   38.1245408818250     
   35.8900648902849     
   34.7747590400809     
   34.8334836874323     
   34.7715575835814     
   34.7978706161784     
   34.7049352684448     
   34.7161944899337     
   34.5606181747702     
   34.5661653857884     
   34.2833216853959     
   34.2943113747904     
   33.4182713289878     
   42.7367870415095     
   42.0879385707826     
   41.9195684144427     
   41.0663033767561     
   40.4792728325176     
   39.2558045981928     
   38.6344578403235     
   36.5257829901641     
   35.2048575893674     
   42.6849818494269     
   41.9614420582839     
   41.7061828979508     
   40.7217772704145     
   39.9813032596695     
   38.6826524902735     
   38.0078746653087     
   35.9324293117693     
   34.6277067575698     
   42.6510497811761     
   41.8083009114636     
   41.4417057448751     
   40.3385732214964     
   39.4927637847572     
   38.1320842976058     
   37.4132067261221     
   35.3559984292421     
   34.0554413082833     
   34.8141022527026     
   34.8202967872270     
   34.7565375958041     
   34.7556997060365     
   34.6513819998935     
   34.6149773785991     
   34.4414555118965     
   34.3840949259387     
   34.0711588277217     
   33.7536305434142     
   42.9912171122836     
   42.8331802143415     
   42.7505324259197     
   42.2914200763646     
   42.1586307025494     
   41.0136889303228     
   40.2359922416495     
   38.1108433282916     
   36.6961928479182     
   42.9535630927395     
   42.6589283101803     
   42.3627397229564     
   41.7435816531743     
   41.4914257935336     
   40.2878152170716     
   39.4652323661063     
   37.3893341654819     
   35.9923521094154     
   42.9126172348001     
   42.3979537221533     
   41.9261846656577     
   41.1944955912853     
   40.8659356346080     
   39.5897900551889     
   38.7197899315471     
   36.6758434674588     
   35.2888853968074     
   42.8219847232990     
   42.1809015636405     
   41.5719249241024     
   40.7392120097524     
   40.3467832366486     
   38.9632115299407     
   38.0158157690943     
   35.9521360342794     
   34.5492746913323     
   34.7859028360653     
   34.7519622726886     
   34.7540654929573     
   34.6895245896066     
   34.6680379259294     
   34.5542186758722     
   34.4907772419401     
   34.2949362263349     
   34.1282223500605     
   33.6769373748395     
   43.2584155082021     
   42.7078801695694     
   42.5663504390668     
   41.6741156928571     
   40.9839118726070     
   39.7955132990926     
   38.8646762475834     
   36.5693937991317     
   34.7534250079061     
   43.2228181560945     
   42.6501096076131     
   42.4349466099574     
   41.2654074075841     
   40.3159081519250     
   38.9562393020479     
   37.8987729668605     
   35.6200074793087     
   33.8679754068655     
[...]
   39.1418830680502     
   38.7660395419323     
   38.3285567896812     
   38.0982640319476     
   37.8866849252336     
   37.6727534341207     
   36.0190390139967     
   39.3476229651812     
   39.3888254832410     
   38.9830586559052     
   38.5784364026821     
   38.1148909040717     
   37.8589905088672     
   37.6227841956845     
   37.3615766126176     
   35.6860071845696     
   39.3108790404061     
   39.2524743527903     
   38.8206185469864     
   38.3774572385443     
   37.8805404297006     
   37.5968367389102     
   37.3370647624425     
   37.0376846802275     
   35.3556919175315     
   39.2627567575958     
   39.1248275942853     
   38.6828724961262     
   38.1915043943229     
   37.6328866668251     
   37.3153902641943     
   37.0316592436280     
   36.7059431561695     
   35.0214496544730     
   39.2018798318614     
   39.0203372922465     
   38.5738633139558     
   38.0450926348534     
   37.3941693959515     
   37.0214953341017     
   36.7082560720230     
   36.3560393260174     
   34.6724003100316     
   39.1366232354209     
   38.9327170838359     
   38.4817766562342     
   37.9312134070099     
   37.1920882017226     
   36.7344165343462     
   36.3724182904178     
   35.9885665292210     
   34.3068710556140     
   39.0701329301944     
   38.8521536641909     
   38.3964984228758     
   37.8292481251734     
   37.0278793495573     
   36.4733156573770     
   36.0375724570002     
   35.6048800031352     
   33.9221052387535     
   39.0024928320197     
   38.7742726302603     
   38.3111450722730     
   37.7280372396879     
   36.8854672323056     
   36.2454824547252     
   35.7200396751413     
   35.2095351874136     
   33.5165920919794     
   38.9343105657632     
   38.6993661342678     
   38.2251247305348     
   37.6232597333334     
   36.7504687894729     
   36.0437997800164     
   35.4330917033801     
   34.8148036497866     
   33.0914158032976     
   38.8668826303990     
   38.6263592116283     
   38.1395990753044     
   37.5154883095692     
   36.6131205007515     
   35.8532727340951     
   35.1690734562775     
   34.4446306392820     
   38.9832414627201     
   38.8707471001340     
   38.9119344625573     
   38.8955624197718     
   38.9650162121483     
   38.5161291653773     
   37.8910164091075     
   36.6102802074899     
   36.1449287495282     
   38.9212194026139     
   38.7674001954286     
   38.7827748157057     
   38.7418128858960     
   38.7521232837447     
   38.2433636654456     
   37.5523277941965     
   36.2879351668266     
   35.6917386370850     
   38.8730647726809     
   38.6486927111727     
   38.6271723113307     
   38.5585265268201     
   38.5197763637051     
   37.9697816335267     
   37.2307033275876     
   35.9731734598334     
   35.2538499169576     
   38.8348756428407     
   38.5186161364714     
   38.4486636395113     
   38.3480874471829     
   38.2721888861394     
   37.6863797521289     
   36.9104782801939     
   35.6338348825617     
   34.8602631110768     
   38.7938035940618     
   38.4075464976805     
   38.2620795973912     
   38.1191133703578     
   38.0035221196922     
   37.3851129944289     
   36.5756264443427     
   35.2796066943621     
   34.4655044029567     
   38.7407446704057     
   38.3280913699586     
   38.1031742302250     
   37.8923986801606     
   37.7230510844241     
   37.0669601307782     
   36.2232314466259     
   34.9105376131461     
   34.0640697745214     
   38.6824762189651     
   38.2624485176924     
   37.9864581193486     
   37.6887817588317     
   37.4445269053122     
   36.7355162901807     
   35.8527996395569     
   34.5264656101837     
   33.6531075159238     
   38.6249649711619     
   38.1977950041315     
   37.8928031214701     
   37.5188041075914     
   37.1851413878676     
   36.3946608642116     
   35.4641934383752     
   34.1273242476012     
   33.2316102061249     
   38.5677236734407     
   38.1332764629517     
   37.8068334383559     
   37.3779977541893     
   36.9548658825656     
   36.0534348187518     
   35.0576556239011     
   33.7129971914755     
   38.5111745209396     
   38.0724743510477     
   37.7289076420139     
   37.2587366866627     
   36.7526257121480     
   35.7309262998661     
   34.6414169312508     
   33.2881973596365     
   38.4586144473484     
   38.0127670272789     
   37.6597495562651     
   37.1586330784922     
   36.5700937170238     
   35.4227741208248     
   34.2187842468128     
   38.4070232790828     
   37.9505413059342     
   37.5910258063020     
   37.0671057251688     
   36.3987259134162     
   35.1141961116012     
   33.7879927235392     
   38.3518679199262     
   37.8876318331115     
   37.5183290906196     
   36.9743625901344     
   36.2350490472790     
   34.8055137751935     
   33.3583138584447     
   38.2949195317806     
   37.8255457647988     
   37.4416588323572     
   36.8751199593185     
   36.0707665007773     
   34.5017684780337     
   38.2375391925734     
   37.7633882221603     
   37.3612506745409     
   36.7663073346464     
   35.8953132125411     
   34.2032654268871     
   38.4434611574451     
   38.3053121833568     
   38.3053668098674     
   38.0177367798720     
   38.2047367891953     
   38.1292857068083     
   37.9773480688163     
   35.9645040233837     
   34.0459372668842     
   38.3721047525295     
   38.1956774959196     
   38.1563405055203     
   37.8542531055739     
   37.9618053379812     
   37.8006691291182     
   37.5023698857769     
   35.4920446880360     
   33.3631567141200     
   38.3126031945111     
   38.0638082956608     
   37.9720911496906     
   37.6455792851151     
   37.6897445776146     
   37.4764322292208     
   37.0625254091410     
   35.0297708799238     
   38.2649786374993     
   37.9151771504135     
   37.7588260062915     
   37.4041053288097     
   37.3967426519319     
   37.1396774569373     
   36.6249098843016     
   34.5823226640721     
   38.2230725376781     
   37.7696346419567     
   37.5317234991483     
   37.1337242542673     
   37.0879648882436     
   36.7908951305163     
   36.2135037984077     
   34.1358681337554     
   38.1729741277390     
   37.6594660170538     
   37.3105384812040     
   36.8523785408606     
   36.7641540881467     
   36.4277600003663     
   35.7917542939835     
   33.6878366759747     
   38.1093004851889     
   37.5761915028470     
   37.1346268258787     
   36.5889983536753     
   36.4433161273951     
   36.0588229426107     
   35.3605247983527     
   33.2351389025002     
   38.0442041931101     
   37.5008569834103     
   37.0074002590526     
   36.3576773825252     
   36.1385216645251     
   35.6906884011185     
   34.9211724945126     
   37.9820965764622     
   37.4282037258641     
   36.8989931583954     
   36.1598293772630     
   35.8614277292752     
   35.3328545385262     
   34.4753279093507     
   37.9183844747370     
   37.3575151724787     
   36.8010531439559     
   35.9966056254742     
   35.6211646526718     
   35.0045904952724     
   34.0363293797596     
   37.8582886150668     
   37.2852157903226     
   36.7121008639757     
   35.8638539103061     
   35.4092197183420     
   34.6943586580041     
   33.6044161079204     
   37.7983773336324     
   37.2115346271186     
   36.6243218236003     
   35.7494108887860     
   35.2176327121108     
   34.3923033436822     
   33.1789029820091     
   37.7359924688363     
   37.1415965372491     
   36.5356323375161     
   35.6389691792283     
   35.0430226792203     
   34.1092744535091     
   37.6744456417503     
   37.0742814100998     
   36.4470518316284     
   35.5270676325165     
   34.8774257589112     
   33.8440316172945     
   37.6141331093178     
   37.0086164779390     
   36.3591502388164     
   35.4139774716929     
   34.7135651098318     
   33.5839168019835     
   37.5551273590247     
   36.9445756680616     
   36.2716770448157     
   35.2997106725138     
   34.5468104829212     
   33.3168334662737     
   37.4929683453086     
   36.8736557210950     
   36.1757718074244     
   35.1764941206956     
   34.3691030281669     
   33.0338687757024     
   37.4343311396692     
   36.7961487633107     
   36.0708765195801     
   35.0439226268867     
   34.1804238708871     
   37.3835841154442     
   36.7131506239040     
   35.9567132044074     
   34.9018455456168     
   33.9823672260068     
   37.3391186729842     
   36.6191321682811     
   35.8258396008867     
   34.7417264444358     
   33.7670692335288     
   37.3020804467146     
   36.5109093181462     
   35.6741961449465     
   34.5579166189063     
   33.5276416613198     
   37.2711879000607     
   36.3866611268103     
   35.5004263734779     
   34.3492133010005     
   33.2635284857419     
   37.2437779088526     
   36.2472035119043     
   35.3057377859603     
   34.1177107664941     
   37.2158449203401     
   36.0913948117440     
   35.0857029656349     
   33.8583463100024     
   37.1852737506471     
   35.9303874765506     
   34.8515881205786     
   33.5827109357187     
   37.1494770399604     
   35.7707492425139     
   34.6110178990593     
   33.2946817820285     
   37.1068665044165     
   35.6174083654353     
   34.3743424007852     
   37.0578766449474     
   35.4713457330809     
   34.1495788302934     
   37.0045056984214     
   35.3301298764105     
   33.9357963585379     
   36.9492315036968     
   35.1906409906684     
   33.7269187572579     
   36.8942481332269     
   35.0498064032786     
   33.5170517651898     
   36.8406130204581     
   34.9048283315259     
   33.3019237518784     
   36.7879119600856     
   34.7540526706155     
   33.0807488723210     
   36.7349697742817     
   34.5980526067477     
   36.6808641593930     
   34.4394253334798     
   36.6253345995988     
   34.2807566855507     
   36.5685514464745     
   34.1229214871613     
   36.5106722774023     
   33.9653276165146     
   36.4516052839753     
   33.8071349478285     
   36.3910625792566     
   33.6481531754723     
   36.3287680696002     
   33.4891248986757     
   36.2646766202189     
   33.3314041874954     
   36.1990233887226     
   33.1761348789593     
   36.1322111867562     
   33.0239510535464     
   36.0648700131169     
   35.9980482186345     
   35.9329593670700     
   35.8703698725341     
   35.8104494964442     
   35.7530745416639     
   35.6980643806678     
   35.6452432836850     
   35.5944207942108     
   35.5437033897408     
   35.4946032413094     
   35.4468534310644     
   35.4001945859930     
   35.3543807213061     
   35.3091894245188     
   35.2644277929698     
   35.2199360846534     
   35.1755894864467     
   35.1312984333778     
   35.0870078223031     
   35.0426952886881     
   34.9983686685087     
   34.9540629045185     
   34.9098365471742     
   34.8657675733315     
   34.8219478627767     
   34.7784756676935     
   34.7354467535416     
   34.6929455963979     
   34.6510383287063     
   34.6097687520783     
   34.5691575556835     
   34.5292040740072     
   34.4898895885336     
   34.4511813025707     
   34.4130364027305     
   34.3754058821715     
   34.3382379677101     
   34.3014810775509     
   34.2650862746985     
   34.2290092741880     
   34.1932117286631     
   34.1576621374153     
   34.1223363743334     
   34.0872176886452     
   34.0522963353839     
   34.0175688740180     
   33.9830372151762     
   33.9487075531269     
   33.9145888646235     
   33.8806915908120     
   33.8489981998742     
   33.8175170576379     
   33.7862568070676     
   33.7552231651358     
   33.7244195002245     
   33.6938461537436     
   33.6635008320302     
   33.6333789691168     
   33.6034740255521     
   33.5737779538628     
   33.5442816636934     
   33.5149755137102     
   33.4858497384804     
   33.4568948268757     
   33.4281018216271     
   33.3994625525815     
   33.3709697904852     
   33.3418520302941     
   33.3128771317074     
   33.2840401805565     
   33.2553375719338     
   33.2267409812929     
   33.1980712902950     
   33.1699011265131     
   33.1415888607299     
   33.1131316142220     
   33.0838210038724     
   33.0526005549974     
   33.0180446837724     
  -1.99470619617560     
 -0.890396906645950     
 -0.102728821842608     
 -4.967471464465771E-002
 -4.097984952456292E-002
 -2.687362237454613E-002
 -3.742014078018691E-003
 -0.252064090313235     
 -0.346380355017198     
 -3.213153150132573E-002
 -0.117295228810025     
 -0.162907347298812     
 -0.160307167937274     
 -1.759044419032907E-003
 -0.288381222146227     
 -0.452513167423404     
 -0.259234838836065     
 -2.803317036589822E-002
 -6.099993512280570E-002
 -0.239155698311937     
 -0.250766334963913     
 -0.177425704875274     
 -8.370933828852709E-002
 -3.630313532277324E-002
 -1.687828008470804E-002
 -0.434937700112441     
 -1.637672314474431E-002
 -6.864417036930583E-003
 -0.236090998794285     
 -0.199717043332134     
 -0.155104339427635     
 -7.172882697113153E-002
 -1.487849438247169E-002
 -2.215232409280232E-002
 -4.447367052893192E-002
 -1.081218929832217E-002
 -0.310959372141280     
 -0.146248534155352     
 -5.232449473103196E-003
 -0.321719717100567     
 -8.693809914336526E-002
 -2.565592968251532E-002
 -2.805777715101310E-002
 -0.964017343429014     
 -5.507443441039023E-002
 -4.424313863542646E-002
 -2.874901803952898E-002
 -6.737156696658385E-004
 -1.490262706539977E-002
 -4.681159847624244E-002
 -1.928689346824758E-002
 -0.207402213801919     
 -0.308049832522212     
 -0.521663538049202     
 -0.157475404595027     
 -1.982986167542275E-002
 -0.246674238373340     
 -0.125610198363256     
 -6.778335566594340E-002
 -0.166649037326820     
 -0.318304648760098     
 -0.501604351652138     
 -0.866000976828603     
 -0.731392094138262     
 -0.145162975562581     
 -5.494292055288713E-002
 -0.749495162946581     
 -0.547689115108638     
** ERROR:
 no convergence for CG method, nr of iterations, eps :           1001           NaN
Closed file : sluice_sal_0001.tim
Closed file : sluice_0001.tim
Closed file : 071_03_sal_0022.tim
Closed file : 071_03_sal_0021.tim
Closed file : 071_03_sal_0020.tim
Closed file : 071_03_sal_0019.tim
Closed file : 071_03_sal_0018.tim
Closed file : 071_03_sal_0017.tim
Closed file : 071_03_sal_0016.tim
Closed file : 071_03_sal_0015.tim
Closed file : 071_03_sal_0014.tim
Closed file : 071_03_sal_0013.tim
Closed file : 071_03_sal_0012.tim
Closed file : 071_03_sal_0011.tim
Closed file : 071_03_sal_0010.tim
Closed file : 071_03_sal_0009.tim
Closed file : 071_03_sal_0008.tim
Closed file : 071_03_sal_0007.tim
Closed file : 071_03_sal_0006.tim
Closed file : 071_03_sal_0005.tim
Closed file : 071_03_sal_0004.tim
Closed file : 071_03_sal_0003.tim
Closed file : 071_03_sal_0002.tim
Closed file : 071_03_sal_0001.tim
Closed file : 071_02_sal_0048.tim
Closed file : 071_02_sal_0047.tim
Closed file : 071_02_sal_0046.tim
Closed file : 071_02_sal_0045.tim
Closed file : 071_02_sal_0044.tim
Closed file : 071_02_sal_0043.tim
Closed file : 071_02_sal_0042.tim
Closed file : 071_02_sal_0041.tim
Closed file : 071_02_sal_0040.tim
Closed file : 071_02_sal_0039.tim
Closed file : 071_02_sal_0038.tim
Closed file : 071_02_sal_0037.tim
Closed file : 071_02_sal_0036.tim
Closed file : 071_02_sal_0035.tim
Closed file : 071_02_sal_0034.tim
Closed file : 071_02_sal_0033.tim
Closed file : 071_02_sal_0032.tim
Closed file : 071_02_sal_0031.tim
Closed file : 071_02_sal_0030.tim
Closed file : 071_02_sal_0029.tim
Closed file : 071_02_sal_0028.tim
Closed file : 071_02_sal_0027.tim
Closed file : 071_02_sal_0026.tim
Closed file : 071_02_sal_0025.tim
Closed file : 071_02_sal_0024.tim
Closed file : 071_02_sal_0023.tim
Closed file : 071_02_sal_0022.tim
Closed file : 071_02_sal_0021.tim
Closed file : 071_02_sal_0020.tim
Closed file : 071_02_sal_0019.tim
Closed file : 071_02_sal_0018.tim
Closed file : 071_02_sal_0017.tim
Closed file : 071_02_sal_0016.tim
Closed file : 071_02_sal_0015.tim
Closed file : 071_02_sal_0014.tim
Closed file : 071_02_sal_0013.tim
Closed file : 071_02_sal_0012.tim
Closed file : 071_02_sal_0011.tim
Closed file : 071_02_sal_0010.tim
Closed file : 071_02_sal_0009.tim
Closed file : 071_02_sal_0008.tim
Closed file : 071_02_sal_0007.tim
Closed file : 071_02_sal_0006.tim
Closed file : 071_02_sal_0005.tim
Closed file : 071_02_sal_0004.tim
Closed file : 071_02_sal_0003.tim
Closed file : 071_02_sal_0002.tim
Closed file : 071_02_sal_0001.tim
Closed file : 071_01_sal_0020.tim
Closed file : 071_01_sal_0019.tim
Closed file : 071_01_sal_0018.tim
Closed file : 071_01_sal_0017.tim
Closed file : 071_01_sal_0016.tim
Closed file : 071_01_sal_0015.tim
Closed file : 071_01_sal_0014.tim
Closed file : 071_01_sal_0013.tim
Closed file : 071_01_sal_0012.tim
Closed file : 071_01_sal_0011.tim
Closed file : 071_01_sal_0010.tim
Closed file : 071_01_sal_0009.tim
Closed file : 071_01_sal_0008.tim
Closed file : 071_01_sal_0007.tim
Closed file : 071_01_sal_0006.tim
Closed file : 071_01_sal_0005.tim
Closed file : 071_01_sal_0004.tim
Closed file : 071_01_sal_0003.tim
Closed file : 071_01_sal_0002.tim
Closed file : 071_01_sal_0001.tim
Closed file : 071_03_0022.tim
Closed file : 071_03_0021.tim
Closed file : 071_03_0020.tim
Closed file : 071_03_0019.tim
Closed file : 071_03_0018.tim
Closed file : 071_03_0017.tim
Closed file : 071_03_0016.tim
Closed file : 071_03_0015.tim
Closed file : 071_03_0014.tim
Closed file : 071_03_0013.tim
Closed file : 071_03_0012.tim
Closed file : 071_03_0011.tim
Closed file : 071_03_0010.tim
Closed file : 071_03_0009.tim
Closed file : 071_03_0008.tim
Closed file : 071_03_0007.tim
Closed file : 071_03_0006.tim
Closed file : 071_03_0005.tim
Closed file : 071_03_0004.tim
Closed file : 071_03_0003.tim
Closed file : 071_03_0002.tim
Closed file : 071_03_0001.tim
Closed file : 071_02_0048.tim
Closed file : 071_02_0047.tim
Closed file : 071_02_0046.tim
Closed file : 071_02_0045.tim
Closed file : 071_02_0044.tim
Closed file : 071_02_0043.tim
Closed file : 071_02_0042.tim
Closed file : 071_02_0041.tim
Closed file : 071_02_0040.tim
Closed file : 071_02_0039.tim
Closed file : 071_02_0038.tim
Closed file : 071_02_0037.tim
Closed file : 071_02_0036.tim
Closed file : 071_02_0035.tim
Closed file : 071_02_0034.tim
Closed file : 071_02_0033.tim
Closed file : 071_02_0032.tim
Closed file : 071_02_0031.tim
Closed file : 071_02_0030.tim
Closed file : 071_02_0029.tim
Closed file : 071_02_0028.tim
Closed file : 071_02_0027.tim
Closed file : 071_02_0026.tim
Closed file : 071_02_0025.tim
Closed file : 071_02_0024.tim
Closed file : 071_02_0023.tim
Closed file : 071_02_0022.tim
Closed file : 071_02_0021.tim
Closed file : 071_02_0020.tim
Closed file : 071_02_0019.tim
Closed file : 071_02_0018.tim
Closed file : 071_02_0017.tim
Closed file : 071_02_0016.tim
Closed file : 071_02_0015.tim
Closed file : 071_02_0014.tim
Closed file : 071_02_0013.tim
Closed file : 071_02_0012.tim
Closed file : 071_02_0011.tim
Closed file : 071_02_0010.tim
Closed file : 071_02_0009.tim
Closed file : 071_02_0008.tim
Closed file : 071_02_0007.tim
Closed file : 071_02_0006.tim
Closed file : 071_02_0005.tim
Closed file : 071_02_0004.tim
Closed file : 071_02_0003.tim
Closed file : 071_02_0002.tim
Closed file : 071_02_0001.tim
Closed file : 071_01_0020.tim
Closed file : 071_01_0019.tim
Closed file : 071_01_0018.tim
Closed file : 071_01_0017.tim
Closed file : 071_01_0016.tim
Closed file : 071_01_0015.tim
Closed file : 071_01_0014.tim
Closed file : 071_01_0013.tim
Closed file : 071_01_0012.tim
Closed file : 071_01_0011.tim
Closed file : 071_01_0010.tim
Closed file : 071_01_0009.tim
Closed file : 071_01_0008.tim
Closed file : 071_01_0007.tim
Closed file : 071_01_0006.tim
Closed file : 071_01_0005.tim
Closed file : 071_01_0004.tim
Closed file : 071_01_0003.tim
Closed file : 071_01_0002.tim
Closed file : 071_01_0001.tim
