file-created-by  Deltares, D-Flow FM Version 1.1.149.42280, Oct 03 2015, 19:56:57
file-creation-date  2015-10-08, 15:54:55                                        
task      full-coupling
geometry  unstructured
horizontal-aggregation no
reference-time              '20010101000000'
hydrodynamic-start-time     '20140101000000'
hydrodynamic-stop-time      '20140108000000'
hydrodynamic-timestep       '00000000010000'
conversion-ref-time         '20010101000000'
conversion-start-time       '20140101000000'
conversion-stop-time        '20140108000000'
conversion-timestep         '00000000010000'
grid-cells-first-direction                    8355
grid-cells-second-direction                      1
number-hydrodynamic-layers                       1
number-horizontal-exchanges                  16070
number-vertical-exchanges                        0
number-water-quality-segments-per-layer       8355
number-water-quality-layers                      1
hydrodynamic-file           'westernscheldt01'
aggregation-file            none
boundaries-file             'westernscheldt01.bnd'
waqgeom-file                'westernscheldt01_waqgeom.nc'
grid-indices-file           'westernscheldt01.bnd'
grid-coordinates-file       'westernscheldt01_waqgeom.nc'
volumes-file                'westernscheldt01.vol'
areas-file                  'westernscheldt01.are'
flows-file                  'westernscheldt01.flo'
pointers-file               'westernscheldt01.poi'
lengths-file                'westernscheldt01.len'
salinity-file               none
temperature-file            none
vert-diffusion-file         none
horizontal-surfaces-file    'westernscheldt01.srf'
surfaces-file               'westernscheldt01.srfold'
shear-stresses-file         'westernscheldt01.tau'
attributes-file             'westernscheldt01.atr'
hydrodynamic-layers
       1.000000
end-hydrodynamic-layers
water-quality-layers   
       1.000000
end-water-quality-layers
sink-sources
         1       -46      1490       -999.000000       -999.000000      36986.542408     387060.953166  SourceSink01
end-sink-sources
