# Generated on 2018-08-10 15:25:53
# Deltares, D-Flow FM user interface version 1.4.7.40404, D-Flow FM kernel version 1.2.0.53941M

[model]
Program           = D-Flow FM
Version           = 1.2.0.53941M
MDUFormatVersion  = 1.02
GuiVersion        = 1.4.7.40404
AutoStart         = 0                   # Autostart simulation after loading MDU or not (0=no, 1=autostart, 2=autostartstop).

[geometry]
NetFile           = fm_003_net.nc       # *_net.nc
BathymetryFile    =                     # *.xyb
DryPointsFile     =
EnclosureFile     =
WaterLevIniFile   =                     # Initial water levels sample file *.xyz
LandBoundaryFile  = Harlingen_haven.ldb # Only for plotting
ThinDamFile       = thindam_thd.pli     # *_thd.pli, Polyline(s) for tracing thin dams.
FixedWeirFile     = fixedweir_fxw.pli   # *._fxw.pli, Polyline(s) x,y,z, z = fixed weir top levels
PillarFile        =
StructureFile     =
VertplizFile      =
ProflocFile       =                     # *_proflocation.xyz)    x,y,z, z = profile refnumber
ProfdefFile       =                     # *_profdefinition.def) definition for all profile nrs
ProfdefxyzFile    =
Uniformwidth1D    = 2
ManholeFile       =                     # *...
WaterLevIni       = 0                   # Initial water level
Bedlevuni         = -5                  # Uniform bottom level, (only if bedlevtype>=3, used at missing z values in netfile
Bedslope          = 0
BedlevType        = 3                   # 1 : Bottom levels at waterlevel cells (=flow nodes), like tiles xz, yz, bl , bob = max(bl left, bl right)
Blmeanbelow       = -999
Blminabove        = -999
                                           # 2 : Bottom levels at velocity points  (=flow links),            xu, yu, blu, bob = blu,    bl = lowest connected link
                                           # 3 : Bottom levels at velocity points  (=flow links), using mean network levels xk, yk, zk  bl = lowest connected link
                                           # 4 : Bottom levels at velocity points  (=flow links), using min  network levels xk, yk, zk  bl = lowest connected link
                                           # 5 : Bottom levels at velocity points  (=flow links), using max  network levels xk, yk, zk  bl = lowest connected link
PartitionFile     =                     # *_part.pol, polyline(s) x,y
AngLat            = 0                   # Angle of latitude (deg), 0=no Coriolis
AngLon            = 0
Conveyance2D      = 3                   # -1:R=HU,0:R=H, 1:R=A/P, 2:K=analytic-1D conv, 3:K=analytic-2D conv
Nonlin2D          = 0
Sillheightmin     = 0
Makeorthocenters  = 0                   # 1=yes, 0=no switch from circumcentres to orthocentres in geominit
Dcenterinside     = 1                   # limit cell center; 1.0:in cell <-> 0.0:on c/g
Bamin             = 1E-06
OpenBoundaryTolerance= 3
RenumberFlowNodes = 1
Kmx               = 0                   # Max nr of vertical layers
Layertype         = 1
Numtopsig         = 0
SigmaGrowthFactor = 1

[numerics]
CFLMax            = 0.7                 # Max. Courant nr.
AdvecType         = 3                   # Adv type, 0=no, 1= Wenneker, qu-udzt, 2=1, q(uio-u), 3=Perot q(uio-u), 4=Perot q(ui-u), 5=Perot q(ui-u) without itself
TimeStepType      = 2
Limtyphu          = 0
Limtypmom         = 4                   # Limiter type for cell center advection velocity, 0=no, 1=minmod,2=vanLeer,3=Kooren,4=Monotone Central
Limtypsa          = 4                   # Limiter type for salinity transport,           0=no, 1=minmod,2=vanLeer,3=Kooren,4=Monotone Central
TransportMethod   = 1
Vertadvtypsal     = 5
Icgsolver         = 1                   # Solver type , 1 = sobekGS_OMP, 2 = sobekGS_OMPthreadsafe, 3 = sobekGS, 4 = sobekGS + Saadilud, 5 = parallel/global Saad, 6 = parallel/Petsc, 7 = parallel/GS
Maxdegree         = 6                   # Maximum degree in Gauss elimination
FixedWeirScheme   = 0
FixedWeirContraction= 1
FixedWeirfrictscheme= 1
Fixedweirtopwidth = 3
Fixedweirtopfrictcoef= -999
Fixedweirtalud    = 4
Izbndpos          = 0
Tlfsmo            = 3600
Slopedrop2D       = 0
Chkadvd           = 0.1
Teta0             = 0.55
Qhrelax           = 0.01
Jbasqbnddownwindhs= 0
cstbnd            = 0
Maxitverticalforestersal= 0
Maxitverticalforestertem= 0
Jaorgsethu        = 1
Turbulencemodel   = 3
Turbulenceadvection= 3
AntiCreep         = 0
Maxwaterleveldiff = 0
Maxvelocitydiff   = 0
Epshu             = 0.0001
SobekDFM_umin     = 0
CFLWaveFrac       = 0.1                 # Wave velocity fraction, total courant vel = u + cflw*wavevelocity
SomeNewFactor     = 2.56                # Some new factor that should be read and written, but is not known

[physics]
UnifFrictCoef     = 0.023               # Uniform friction coefficient, 0=no friction
UnifFrictType     = 1                   # 0=Chezy, 1=Manning, 2=White Colebrook, 3=z0 etc
UnifFrictCoef1D   = 0.023
UnifFrictCoefLin  = 0
Umodlin           = 0
Vicouv            = 0                   # Uniform horizontal eddy viscosity (m2/s)
Dicouv            = 0                   # Uniform horizontal eddy diffusivity (m2/s)
Vicoww            = 0                   # Uniform vertical eddy viscosity  (m2/s)
Dicoww            = 0                   # Uniform vertical eddy diffusivity  (m2/s)
Vicwminb          = 0
Smagorinsky       = 0                   # Add Smagorinsky horizontal turbulence : vicu = vicu + ( (Smagorinsky*dx)**2)*S, e.g. 0.1
Elder             = 0                   # Add Elder contribution                : vicu = vicu + Elder*kappa*ustar*H/6),   e.g. 1.0
Irov              = 0                   # Wall roughness type (0: free slip, 1: partial slip using wall_ks)
wall_ks           = 0                   # Nikuradse roughness for side walls
Rhomean           = 1000
Idensform         = 1
Ag                = 9.813
TidalForcing      = 1                   # Tidal forcing (0=no, 1=yes) (only for jsferic == 1)
Doodsonstart      = 55.565
Doodsonstop       = 375.575
Doodsoneps        = 0
Salinity          = 1                   # Include salinity, (0=no, 1=yes)
InitialSalinity   = 0                   # Inital salinity concentration (ppt)
Sal0abovezlev     = -999
DeltaSalinity     = -999
Backgroundsalinity= 30
Temperature       = 0
InitialTemperature= 6
Secchidepth       = 2
Stanton           = -1
Dalton            = -1
Backgroundwatertemperature= 6
SecondaryFlow     = 0
EffectSpiral      = 0
BetaSpiral        = 0

[wind]
ICdtyp            = 2                   # ( ), Cd = const, 2=S&B 2 breakpoints, 3= S&B 3 breakpoints
Cdbreakpoints     = 0.00063 0.00723     # ( ),   e.g. 0.00063  0.00723
Windspeedbreakpoints= 0 100               # (m/s), e.g. 0.0      100.0
Rhoair            = 1.205
PavBnd            = 0
PavIni            = 0

[waves]
Wavemodelnr       = 0
WaveNikuradse     = 0.01
Rouwav            = FR84
Gammax            = 1

[time]
RefDate           = 20080109            # Reference date (yyyymmdd)
Tzone             = 0
DtUser            = 60                  # User timestep in seconds (interval for external forcing update & his/map output)
DtNodal           =
DtMax             = 60                  # Max timestep in seconds
DtInit            = 1                   # Initial timestep in seconds
Tunit             = M                   # Time units in MDU (H, M or S)
TStart            = 15120               # Start time w.r.t. RefDate (in TUnit)
TStop             = 15130               # Stop  time w.r.t. RefDate (in TUnit)
AutoTimestep      = 1                   # Use CFL timestep limit or not (1/0)

[restart]
RestartFile       =                     # Restart file, only map, hence: *_map.nc
RestartDateTime   = 20080109            # Restart time (YYYYMMDDHHMMSS)

[external forcing]
ExtForceFile      = 001.ext             # *.ext
ExtForceFileNew   = 001_bnd.ext

[trachytopes]
TrtRou            = N
TrtDef            =
TrtL              =
DtTrt             = 60

[output]
Wrishp_crs        = 1
Wrishp_weir       = 1
Wrishp_gate       = 1
Wrishp_fxw        = 1
Wrishp_thd        = 1
Wrishp_obs        = 1
Wrishp_emb        = 1
Wrishp_dryarea    = 1
Wrishp_enc        = 1
Wrishp_src        = 1
Wrishp_pump       = 1
OutputDir         =                     # Output directory of map-, his-, rst-, dat- and timings-files, default: DFM_OUTPUT_<modelname>
FlowGeomFile      =                     # *_flowgeom.nc Flow geometry file in NetCDF format.
ObsFile           = har_fine_V3_obs.xyn # *.xyn Coords+name of observation stations.
CrsFile           = har_crs_V2_crs.pli  # *_crs.pli Polyline(s) definining cross section(s).
HisFile           = 001_his.nc          # *_his.nc History file in NetCDF format.
HisInterval       = 60                  # Interval (s) between history outputs
XLSInterval       =                     # Interval (s) between XLS history
MapFile           = 001_map.nc          # *_map.nc Map file in NetCDF format.
MapInterval       = 600                 # Interval (s) between map file outputs
RstInterval       = 0                   # Interval (s) between map file outputs
S1incinterval     =
WaqInterval       = 0                   # Interval (in s) between Delwaq file outputs
StatsInterval     =                     # Interval (in s) between simulation statistics output.
TimingsInterval   = 60                  # Timings output interval
MapFormat         = 1                   # Map file format, 1: netCDF, 2: Tecplot, 3: netCFD and Tecplot
Wrihis_balance    = 1
Wrihis_structure_gen= 1
Wrihis_structure_dam= 1
Wrihis_structure_pump= 1
Wrihis_structure_gate= 1
Wrimap_waterlevel_s0= 1
Wrimap_waterlevel_s1= 1
Wrimap_velocity_component_u0= 1
Wrimap_velocity_component_u1= 1
Wrimap_velocity_vector= 1
Wrimap_upward_velocity_component= 0
Wrimap_density_rho= 1
Wrimap_horizontal_viscosity_viu= 1
Wrimap_horizontal_diffusivity_diu= 1
Wrimap_flow_flux_q1= 1
Wrimap_spiral_flow= 1
Wrimap_numlimdt   = 1
Wrimap_taucurrent = 1
Wrimap_chezy      = 1
Wrimap_turbulence = 1
Wrimap_wind       = 1
Wrimap_heat_fluxes= 0
Richardsononoutput= 1
MapOutputTimeVector=
FullGridOutput    = 0
EulerVelocities   = 0
WaqFileBase       = har                 # Basename (without extension) for all Delwaq files to be written.
SnapshotDir       = figures             # Directory where snapshots/screendumps are saved.
